
 *******************************************************************************

         NASA-GLENN CHEMICAL EQUILIBRIUM PROGRAM CEA2, MAY 21, 2004
                   BY  BONNIE MCBRIDE AND SANFORD GORDON
      REFS: NASA RP-1311, PART I, 1994 AND NASA RP-1311, PART II, 1996

 *******************************************************************************



 ### CEA analysis performed on Wed 08-Sep-2021 09:22:35
  
 # Problem Type: "Rocket" (Infinite Area Combustor)
  
 prob case=rocketsample ro equilibrium
  
 # Pressure (13 values):
 p,psia= 2, 3, 4, 5, 6, 7, 8, 9, 10, 11, 12, 13, 14
 # Chamber/Exit Pressure Ratio (10 values):
 pi/p= 1, 2, 3, 4, 5, 6, 7, 8, 9, 10
  
 # Oxidizer/Fuel Wt. ratio (10 values):
 o/f= 1, 2, 3, 4, 5, 6, 7, 8, 9, 10
  
 # You selected the following fuels and oxidizers:
 reac
 fuel RP-1              wt%=100.0000
 oxid O2(L)             wt%=100.0000
  
 # You selected these options for output:
 # short version of output
 output short
 # Proportions of any products will be expressed as Mass Fractions.
 output massf
 # Heat will be expressed as siunits
 output siunits
  
 # Input prepared by this script:/var/www/sites/cearun.grc.nasa.gov/cgi-bin/CEARU
 N/prepareInputFile.cgi
  
 ### IMPORTANT:  The following line is the end of your CEA input file!
 end





              THEORETICAL ROCKET PERFORMANCE ASSUMING EQUILIBRIUM

           COMPOSITION DURING EXPANSION FROM INFINITE AREA COMBUSTOR

 Pin =     2.0 PSIA
 CASE = rocketsample   

             REACTANT                    WT FRACTION      ENERGY      TEMP
                                          (SEE NOTE)     KJ/KG-MOL      K  
 FUEL        RP-1                         1.0000000    -24717.700    298.150
 OXIDANT     O2(L)                        1.0000000    -12979.000     90.170

 O/F=    1.00000  %FUEL= 50.000000  R,EQ.RATIO= 3.405666  PHI,EQ.RATIO= 3.405666

                 CHAMBER   THROAT     EXIT     EXIT     EXIT     EXIT     EXIT     EXIT
 Pinf/P            1.0000   1.8408   1.0000   2.0000   3.0000   4.0000   5.0000   6.0000
 P, BAR           0.13789  0.07491  0.13789  0.06895  0.04596  0.03447  0.02758  0.02298
 T, K             1407.37  1217.53  1407.37  1193.88  1087.74  1024.78   984.55   957.01
 RHO, KG/CU M    1.7825-2 1.1200-2 1.7825-2 1.0515-2 7.7069-3 6.1521-3 5.1400-3 4.4222-3
 H, KJ/KG        -1087.08 -1526.43 -1087.08 -1581.38 -1834.94 -2001.19 -2123.51 -2219.76
 U, KJ/KG        -1860.68 -2195.27 -1860.68 -2237.11 -2431.35 -2561.55 -2660.06 -2739.47
 G, KJ/KG        -22865.4 -20367.1 -22865.4 -20056.1 -18667.2 -17859.1 -17359.0 -17029.0
 S, KJ/(KG)(K)    15.4745  15.4745  15.4745  15.4745  15.4745  15.4745  15.4745  15.4745

 M, (1/n)          15.126   15.135   15.126   15.138   15.164   15.206   15.257   15.311
 MW, MOL WT        14.157   14.161   14.157   14.162   14.167   14.172   14.176   14.179
 (dLV/dLP)t      -1.00033 -1.00093 -1.00033 -1.00111 -1.00280 -1.00547 -1.00866 -1.01190
 (dLV/dLT)p        1.0034   1.0120   1.0034   1.0148   1.0436   1.0936   1.1577   1.2261
 Cp, KJ/(KG)(K)    2.3333   2.3466   2.3333   2.3634   2.6039   3.1042   3.7982   4.5738
 GAMMAs            1.3104   1.3138   1.3104   1.3127   1.2929   1.2582   1.2250   1.1999
 SON VEL,M/SEC     1006.8    937.4   1006.8    927.8    878.1    839.7    810.7    789.7
 MACH NUMBER        0.000    1.000      NaN    1.072    1.393    1.610    1.776    1.906

 PERFORMANCE PARAMETERS

 Ae/At                      1.0000      NaN   1.0043   1.1139   1.2621   1.4187   1.5774
 CSTAR, M/SEC               1313.4   1313.4   1313.4   1313.4   1313.4   1313.4   1313.4
 CF                         0.7137      NaN   0.7570   0.9312   1.0295   1.0962   1.1460
 Ivac, M/SEC                1650.9      NaN   1653.8   1710.7   1766.5   1812.4   1850.4
 Isp, M/SEC                  937.4      NaN    994.3   1223.0   1352.1   1439.7   1505.1


 MASS FRACTIONS

 CH4              0.00017  0.00031  0.00017  0.00034  0.00054  0.00075  0.00091  0.00104
 *CO              0.87494  0.87370  0.87494  0.87329  0.86903  0.86158  0.85195  0.84154
 *CO2             0.00014  0.00072  0.00014  0.00092  0.00321  0.00754  0.01341  0.01996
 *H2              0.07026  0.07018  0.07026  0.07017  0.07002  0.06983  0.06963  0.06945
 H2O              0.00014  0.00047  0.00014  0.00057  0.00143  0.00268  0.00407  0.00541
 C(gr)            0.05434  0.05462  0.05434  0.05471  0.05576  0.05762  0.06003  0.06261

  * THERMODYNAMIC PROPERTIES FITTED TO 20000.K

 NOTE. WEIGHT FRACTION OF FUEL IN TOTAL FUELS AND OF OXIDANT IN TOTAL OXIDANTS










              THEORETICAL ROCKET PERFORMANCE ASSUMING EQUILIBRIUM

           COMPOSITION DURING EXPANSION FROM INFINITE AREA COMBUSTOR

 Pin =     2.0 PSIA
 CASE = rocketsample   

             REACTANT                    WT FRACTION      ENERGY      TEMP
                                          (SEE NOTE)     KJ/KG-MOL      K  
 FUEL        RP-1                         1.0000000    -24717.700    298.150
 OXIDANT     O2(L)                        1.0000000    -12979.000     90.170

 O/F=    1.00000  %FUEL= 50.000000  R,EQ.RATIO= 3.405666  PHI,EQ.RATIO= 3.405666

                 CHAMBER   THROAT     EXIT     EXIT     EXIT     EXIT
 Pinf/P            1.0000   1.8408   7.0000   8.0000   9.0000   10.000
 P, BAR           0.13789  0.07491  0.01970  0.01724  0.01532  0.01379
 T, K             1407.37  1217.53   936.88   921.36   908.90   898.57
 RHO, KG/CU M    1.7825-2 1.1200-2 3.8852-3 3.4679-3 3.1342-3 2.8611-3
 H, KJ/KG        -1087.08 -1526.43 -2298.88 -2365.91 -2423.96 -2475.10
 U, KJ/KG        -1860.68 -2195.27 -2805.92 -2862.94 -2912.81 -2957.06
 G, KJ/KG        -22865.4 -20367.1 -16796.6 -16623.5 -16488.7 -16380.0
 S, KJ/(KG)(K)    15.4745  15.4745  15.4745  15.4745  15.4745  15.4745

 M, (1/n)          15.126   15.135   15.363   15.413   15.459   15.502
 MW, MOL WT        14.157   14.161   14.181   14.183   14.184   14.185
 (dLV/dLP)t      -1.00033 -1.00093 -1.01494 -1.01771 -1.02019 -1.02241
 (dLV/dLT)p        1.0034   1.0120   1.2927   1.3550   1.4124   1.4649
 Cp, KJ/(KG)(K)    2.3333   2.3466   5.3541   6.1016   6.8023   7.4532
 GAMMAs            1.3104   1.3138   1.1820   1.1691   1.1595   1.1521
 SON VEL,M/SEC     1006.8    937.4    774.2    762.3    752.9    745.2
 MACH NUMBER        0.000    1.000    2.011    2.098    2.172    2.236

 PERFORMANCE PARAMETERS

 Ae/At                      1.0000   1.7358   1.8930   2.0486   2.2024
 CSTAR, M/SEC               1313.4   1313.4   1313.4   1313.4   1313.4
 CF                         0.7137   1.1853   1.2176   1.2450   1.2686
 Ivac, M/SEC                1650.9   1882.5   1910.1   1934.1   1955.4
 Isp, M/SEC                  937.4   1556.8   1599.3   1635.2   1666.1


 MASS FRACTIONS

 CH4              0.00017  0.00031  0.00113  0.00120  0.00125  0.00128
 *CO              0.87494  0.87370  0.83123  0.82140  0.81219  0.80359
 *CO2             0.00014  0.00072  0.02658  0.03300  0.03909  0.04483
 *H2              0.07026  0.07018  0.06929  0.06916  0.06904  0.06894
 H2O              0.00014  0.00047  0.00661  0.00768  0.00862  0.00945
 C(gr)            0.05434  0.05462  0.06515  0.06757  0.06982  0.07191

  * THERMODYNAMIC PROPERTIES FITTED TO 20000.K

 NOTE. WEIGHT FRACTION OF FUEL IN TOTAL FUELS AND OF OXIDANT IN TOTAL OXIDANTS










              THEORETICAL ROCKET PERFORMANCE ASSUMING EQUILIBRIUM

           COMPOSITION DURING EXPANSION FROM INFINITE AREA COMBUSTOR

 Pin =     3.0 PSIA
 CASE = rocketsample   

             REACTANT                    WT FRACTION      ENERGY      TEMP
                                          (SEE NOTE)     KJ/KG-MOL      K  
 FUEL        RP-1                         1.0000000    -24717.700    298.150
 OXIDANT     O2(L)                        1.0000000    -12979.000     90.170

 O/F=    1.00000  %FUEL= 50.000000  R,EQ.RATIO= 3.405666  PHI,EQ.RATIO= 3.405666

                 CHAMBER   THROAT     EXIT     EXIT     EXIT     EXIT     EXIT     EXIT
 Pinf/P            1.0000   1.8383   1.0000   2.0000   3.0000   4.0000   5.0000   6.0000
 P, BAR           0.20684  0.11252  0.20684  0.10342  0.06895  0.05171  0.04137  0.03447
 T, K             1407.93  1219.51  1407.93  1195.78  1092.15  1031.91   993.67   967.35
 RHO, KG/CU M    2.6731-2 1.6803-2 2.6731-2 1.5755-2 1.1527-2 9.1810-3 7.6570-3 6.5799-3
 H, KJ/KG        -1087.08 -1525.74 -1087.08 -1581.63 -1835.66 -2002.57 -2125.62 -2222.61
 U, KJ/KG        -1860.86 -2195.37 -1860.86 -2238.06 -2433.80 -2565.80 -2665.89 -2746.53
 G, KJ/KG        -22560.3 -20125.2 -22560.3 -19819.2 -18492.7 -17740.9 -17280.8 -16976.2
 S, KJ/(KG)(K)    15.2516  15.2516  15.2516  15.2516  15.2516  15.2516  15.2516  15.2516

 M, (1/n)          15.129   15.142   15.129   15.146   15.181   15.233   15.292   15.352
 MW, MOL WT        14.159   14.164   14.159   14.166   14.173   14.179   14.184   14.188
 (dLV/dLP)t      -1.00049 -1.00137 -1.00049 -1.00163 -1.00392 -1.00721 -1.01083 -1.01432
 (dLV/dLT)p        1.0050   1.0176   1.0050   1.0216   1.0606   1.1219   1.1942   1.2673
 Cp, KJ/(KG)(K)    2.3427   2.3883   2.3427   2.4158   2.7525   3.3666   4.1431   4.9621
 GAMMAs            1.3097   1.3101   1.3097   1.3081   1.2819   1.2451   1.2141   1.1919
 SON VEL,M/SEC     1006.7    936.6   1006.7    926.6    875.6    837.4    809.9    790.2
 MACH NUMBER        0.000    1.000      NaN    1.073    1.397    1.616    1.779    1.907

 PERFORMANCE PARAMETERS

 Ae/At                      1.0000      NaN   1.0044   1.1159   1.2669   1.4262   1.5872
 CSTAR, M/SEC               1314.2   1314.2   1314.2   1314.2   1314.2   1314.2   1314.2
 CF                         0.7127      NaN   0.7567   0.9310   1.0296   1.0966   1.1467
 Ivac, M/SEC                1651.6      NaN   1654.6   1712.4   1769.4   1816.1   1854.7
 Isp, M/SEC                  936.6      NaN    994.5   1223.6   1353.1   1441.2   1507.0


 MASS FRACTIONS

 CH4              0.00025  0.00046  0.00025  0.00050  0.00078  0.00104  0.00124  0.00138
 *CO              0.87474  0.87293  0.87474  0.87234  0.86655  0.85734  0.84634  0.83503
 *CO2             0.00021  0.00105  0.00021  0.00134  0.00445  0.00977  0.01643  0.02349
 *H2              0.07023  0.07012  0.07023  0.07010  0.06989  0.06965  0.06942  0.06922
 H2O              0.00021  0.00070  0.00021  0.00083  0.00202  0.00358  0.00521  0.00670
 C(gr)            0.05434  0.05475  0.05434  0.05488  0.05631  0.05861  0.06137  0.06418

  * THERMODYNAMIC PROPERTIES FITTED TO 20000.K

 NOTE. WEIGHT FRACTION OF FUEL IN TOTAL FUELS AND OF OXIDANT IN TOTAL OXIDANTS










              THEORETICAL ROCKET PERFORMANCE ASSUMING EQUILIBRIUM

           COMPOSITION DURING EXPANSION FROM INFINITE AREA COMBUSTOR

 Pin =     3.0 PSIA
 CASE = rocketsample   

             REACTANT                    WT FRACTION      ENERGY      TEMP
                                          (SEE NOTE)     KJ/KG-MOL      K  
 FUEL        RP-1                         1.0000000    -24717.700    298.150
 OXIDANT     O2(L)                        1.0000000    -12979.000     90.170

 O/F=    1.00000  %FUEL= 50.000000  R,EQ.RATIO= 3.405666  PHI,EQ.RATIO= 3.405666

                 CHAMBER   THROAT     EXIT     EXIT     EXIT     EXIT
 Pinf/P            1.0000   1.8383   7.0000   8.0000   9.0000   10.000
 P, BAR           0.20684  0.11252  0.02955  0.02586  0.02298  0.02068
 T, K             1407.93  1219.51   947.92   932.82   920.59   910.40
 RHO, KG/CU M    2.6731-2 1.6803-2 5.7765-3 5.1537-3 4.6563-3 4.2497-3
 H, KJ/KG        -1087.08 -1525.74 -2302.40 -2370.04 -2428.65 -2480.29
 U, KJ/KG        -1860.86 -2195.37 -2813.93 -2871.72 -2922.22 -2967.01
 G, KJ/KG        -22560.3 -20125.2 -16759.8 -16597.0 -16469.2 -16365.4
 S, KJ/(KG)(K)    15.2516  15.2516  15.2516  15.2516  15.2516  15.2516

 M, (1/n)          15.129   15.142   15.408   15.460   15.508   15.552
 MW, MOL WT        14.159   14.164   14.190   14.192   14.193   14.194
 (dLV/dLP)t      -1.00049 -1.00137 -1.01750 -1.02033 -1.02285 -1.02509
 (dLV/dLT)p        1.0050   1.0176   1.3363   1.3997   1.4574   1.5098
 Cp, KJ/(KG)(K)    2.3427   2.3883   5.7592   6.5081   7.2017   7.8409
 GAMMAs            1.3097   1.3101   1.1762   1.1649   1.1564   1.1499
 SON VEL,M/SEC     1006.7    936.6    775.7    764.5    755.5    748.1
 MACH NUMBER        0.000    1.000    2.010    2.095    2.168    2.231

 PERFORMANCE PARAMETERS

 Ae/At                      1.0000   1.7476   1.9064   2.0635   2.2186
 CSTAR, M/SEC               1314.2   1314.2   1314.2   1314.2   1314.2
 CF                         0.7127   1.1863   1.2188   1.2464   1.2701
 Ivac, M/SEC                1651.6   1887.2   1915.0   1939.3   1960.8
 Isp, M/SEC                  936.6   1559.0   1601.8   1638.0   1669.3


 MASS FRACTIONS

 CH4              0.00025  0.00046  0.00148  0.00155  0.00160  0.00164
 *CO              0.87474  0.87293  0.82414  0.81393  0.80444  0.79566
 *CO2             0.00021  0.00105  0.03043  0.03704  0.04326  0.04908
 *H2              0.07023  0.07012  0.06905  0.06890  0.06877  0.06866
 H2O              0.00021  0.00070  0.00802  0.00918  0.01019  0.01107
 C(gr)            0.05434  0.05475  0.06688  0.06940  0.07173  0.07388

  * THERMODYNAMIC PROPERTIES FITTED TO 20000.K

 NOTE. WEIGHT FRACTION OF FUEL IN TOTAL FUELS AND OF OXIDANT IN TOTAL OXIDANTS










              THEORETICAL ROCKET PERFORMANCE ASSUMING EQUILIBRIUM

           COMPOSITION DURING EXPANSION FROM INFINITE AREA COMBUSTOR

 Pin =     4.0 PSIA
 CASE = rocketsample   

             REACTANT                    WT FRACTION      ENERGY      TEMP
                                          (SEE NOTE)     KJ/KG-MOL      K  
 FUEL        RP-1                         1.0000000    -24717.700    298.150
 OXIDANT     O2(L)                        1.0000000    -12979.000     90.170

 O/F=    1.00000  %FUEL= 50.000000  R,EQ.RATIO= 3.405666  PHI,EQ.RATIO= 3.405666

                 CHAMBER   THROAT     EXIT     EXIT     EXIT     EXIT     EXIT     EXIT
 Pinf/P            1.0000   1.8360   1.0000   2.0000   3.0000   4.0000   5.0000   6.0000
 P, BAR           0.27579  0.15021  0.27579  0.13789  0.09193  0.06895  0.05516  0.04596
 T, K             1408.48  1221.39  1408.48  1197.58  1096.06  1037.79  1000.84   975.26
 RHO, KG/CU M    3.5634-2 2.2407-2 3.5634-2 2.0985-2 1.5330-2 1.2190-2 1.0155-2 8.7202-3
 H, KJ/KG        -1087.08 -1525.09 -1087.08 -1581.88 -1836.33 -2003.80 -2127.44 -2224.98
 U, KJ/KG        -1861.04 -2195.47 -1861.04 -2238.97 -2436.00 -2569.38 -2670.59 -2752.09
 G, KJ/KG        -22346.1 -19960.3 -22346.1 -19657.7 -18379.7 -17667.7 -17233.7 -16945.0
 S, KJ/(KG)(K)    15.0935  15.0935  15.0935  15.0935  15.0935  15.0935  15.0935  15.0935

 M, (1/n)          15.131   15.148   15.131   15.154   15.197   15.256   15.321   15.384
 MW, MOL WT        14.162   14.168   14.162   14.169   14.178   14.186   14.191   14.195
 (dLV/dLP)t      -1.00066 -1.00179 -1.00066 -1.00212 -1.00492 -1.00865 -1.01255 -1.01619
 (dLV/dLT)p        1.0067   1.0229   1.0067   1.0280   1.0755   1.1450   1.2225   1.2982
 Cp, KJ/(KG)(K)    2.3521   2.4279   2.3521   2.4653   2.8813   3.5750   4.4012   5.2427
 GAMMAs            1.3090   1.3068   1.3090   1.3040   1.2735   1.2364   1.2073   1.1870
 SON VEL,M/SEC     1006.5    936.0   1006.5    925.6    873.9    836.2    809.8    791.0
 MACH NUMBER        0.000    1.000    0.000    1.075    1.401    1.619    1.781    1.907

 PERFORMANCE PARAMETERS

 Ae/At                      1.0000 961351.1   1.0046   1.1176   1.2705   1.4317   1.5942
 CSTAR, M/SEC               1315.0   1315.0   1315.0   1315.0   1315.0   1315.0   1315.0
 CF                         0.7117   0.0000   0.7565   0.9309   1.0297   1.0969   1.1472
 Ivac, M/SEC                1652.2*********   1655.3   1714.0   1771.7   1819.0   1858.0
 Isp, M/SEC                  936.0      0.0    994.8   1224.1   1354.0   1442.5   1508.6


 MASS FRACTIONS

 CH4              0.00034  0.00060  0.00034  0.00066  0.00100  0.00130  0.00152  0.00167
 *CO              0.87455  0.87220  0.87455  0.87144  0.86437  0.85386  0.84196  0.83008
 *CO2             0.00028  0.00137  0.00028  0.00174  0.00553  0.01157  0.01874  0.02611
 *H2              0.07020  0.07006  0.07020  0.07003  0.06978  0.06950  0.06925  0.06903
 H2O              0.00028  0.00091  0.00028  0.00109  0.00254  0.00435  0.00613  0.00774
 C(gr)            0.05435  0.05487  0.05435  0.05505  0.05679  0.05942  0.06240  0.06537

  * THERMODYNAMIC PROPERTIES FITTED TO 20000.K

 NOTE. WEIGHT FRACTION OF FUEL IN TOTAL FUELS AND OF OXIDANT IN TOTAL OXIDANTS










              THEORETICAL ROCKET PERFORMANCE ASSUMING EQUILIBRIUM

           COMPOSITION DURING EXPANSION FROM INFINITE AREA COMBUSTOR

 Pin =     4.0 PSIA
 CASE = rocketsample   

             REACTANT                    WT FRACTION      ENERGY      TEMP
                                          (SEE NOTE)     KJ/KG-MOL      K  
 FUEL        RP-1                         1.0000000    -24717.700    298.150
 OXIDANT     O2(L)                        1.0000000    -12979.000     90.170

 O/F=    1.00000  %FUEL= 50.000000  R,EQ.RATIO= 3.405666  PHI,EQ.RATIO= 3.405666

                 CHAMBER   THROAT     EXIT     EXIT     EXIT     EXIT
 Pinf/P            1.0000   1.8360   7.0000   8.0000   9.0000   10.000
 P, BAR           0.27579  0.15021  0.03940  0.03447  0.03064  0.02758
 T, K             1408.48  1221.39   956.25   941.37   929.28   919.16
 RHO, KG/CU M    3.5634-2 2.2407-2 7.6520-3 6.8250-3 6.1652-3 5.6262-3
 H, KJ/KG        -1087.08 -1525.09 -2305.28 -2373.37 -2432.38 -2484.39
 U, KJ/KG        -1861.04 -2195.47 -2820.15 -2878.47 -2929.41 -2974.57
 G, KJ/KG        -22346.1 -19960.3 -16738.4 -16582.0 -16458.5 -16357.7
 S, KJ/(KG)(K)    15.0935  15.0935  15.0935  15.0935  15.0935  15.0935

 M, (1/n)          15.131   15.148   15.442   15.496   15.545   15.591
 MW, MOL WT        14.162   14.168   14.198   14.200   14.201   14.202
 (dLV/dLP)t      -1.00066 -1.00179 -1.01945 -1.02232 -1.02486 -1.02710
 (dLV/dLT)p        1.0067   1.0229   1.3685   1.4324   1.4901   1.5423
 Cp, KJ/(KG)(K)    2.3521   2.4279   6.0458   6.7918   7.4777   8.1068
 GAMMAs            1.3090   1.3068   1.1728   1.1625   1.1547   1.1486
 SON VEL,M/SEC     1006.5    936.0    777.1    766.3    757.6    750.4
 MACH NUMBER        0.000    1.000    2.009    2.093    2.165    2.228

 PERFORMANCE PARAMETERS

 Ae/At                      1.0000   1.7559   1.9158   2.0738   2.2298
 CSTAR, M/SEC               1315.0   1315.0   1315.0   1315.0   1315.0
 CF                         0.7117   1.1870   1.2197   1.2473   1.2712
 Ivac, M/SEC                1652.2   1890.8   1918.8   1943.3   1964.9
 Isp, M/SEC                  936.0   1560.9   1603.9   1640.3   1671.7


 MASS FRACTIONS

 CH4              0.00034  0.00060  0.00178  0.00186  0.00191  0.00195
 *CO              0.87455  0.87220  0.81883  0.80838  0.79873  0.78983
 *CO2             0.00028  0.00137  0.03323  0.03996  0.04624  0.05211
 *H2              0.07020  0.07006  0.06884  0.06869  0.06856  0.06844
 H2O              0.00028  0.00091  0.00914  0.01036  0.01142  0.01234
 C(gr)            0.05435  0.05487  0.06817  0.07076  0.07314  0.07533

  * THERMODYNAMIC PROPERTIES FITTED TO 20000.K

 NOTE. WEIGHT FRACTION OF FUEL IN TOTAL FUELS AND OF OXIDANT IN TOTAL OXIDANTS










              THEORETICAL ROCKET PERFORMANCE ASSUMING EQUILIBRIUM

           COMPOSITION DURING EXPANSION FROM INFINITE AREA COMBUSTOR

 Pin =     5.0 PSIA
 CASE = rocketsample   

             REACTANT                    WT FRACTION      ENERGY      TEMP
                                          (SEE NOTE)     KJ/KG-MOL      K  
 FUEL        RP-1                         1.0000000    -24717.700    298.150
 OXIDANT     O2(L)                        1.0000000    -12979.000     90.170

 O/F=    1.00000  %FUEL= 50.000000  R,EQ.RATIO= 3.405666  PHI,EQ.RATIO= 3.405666

                 CHAMBER   THROAT     EXIT     EXIT     EXIT     EXIT     EXIT     EXIT
 Pinf/P            1.0000   1.8340   1.0000   2.0000   3.0000   4.0000   5.0000   6.0000
 P, BAR           0.34474  0.18797  0.34474  0.17237  0.11491  0.08618  0.06895  0.05746
 T, K             1409.02  1223.18  1409.02  1199.32  1099.59  1042.82  1006.79   981.71
 RHO, KG/CU M    4.4532-2 2.8010-2 4.4532-2 2.6206-2 1.9119-2 1.5185-2 1.2639-2 1.0847-2
 H, KJ/KG        -1087.08 -1524.54 -1087.08 -1582.12 -1836.96 -2004.92 -2129.05 -2227.04
 U, KJ/KG        -1861.21 -2195.63 -1861.21 -2239.85 -2438.01 -2572.50 -2674.57 -2756.72
 G, KJ/KG        -22181.5 -19836.7 -22181.5 -19537.0 -18298.8 -17617.0 -17201.7 -16924.2
 S, KJ/(KG)(K)    14.9709  14.9709  14.9709  14.9709  14.9709  14.9709  14.9709  14.9709

 M, (1/n)          15.134   15.155   15.134   15.161   15.211   15.276   15.345   15.410
 MW, MOL WT        14.164   14.172   14.164   14.173   14.183   14.192   14.198   14.202
 (dLV/dLP)t      -1.00081 -1.00219 -1.00081 -1.00259 -1.00583 -1.00990 -1.01400 -1.01774
 (dLV/dLT)p        1.0082   1.0280   1.0082   1.0342   1.0889   1.1645   1.2456   1.3231
 Cp, KJ/(KG)(K)    2.3615   2.4657   2.3615   2.5123   2.9952   3.7478   4.6069   5.4616
 GAMMAs            1.3084   1.3037   1.3084   1.3002   1.2667   1.2301   1.2026   1.1837
 SON VEL,M/SEC     1006.4    935.4   1006.4    924.8    872.6    835.6    810.0    791.8
 MACH NUMBER        0.000    1.000    0.000    1.076    1.404    1.622    1.782    1.907

 PERFORMANCE PARAMETERS

 Ae/At                      1.0000 886933.1   1.0047   1.1190   1.2735   1.4360   1.5996
 CSTAR, M/SEC               1315.8   1315.8   1315.8   1315.8   1315.8   1315.8   1315.8
 CF                         0.7109   0.0000   0.7562   0.9307   1.0297   1.0971   1.1475
 Ivac, M/SEC                1652.8*********   1656.0   1715.4   1773.8   1821.5   1860.7
 Isp, M/SEC                  935.4      0.0    995.0   1224.6   1354.9   1443.6   1509.9


 MASS FRACTIONS

 CH4              0.00042  0.00074  0.00042  0.00081  0.00121  0.00154  0.00178  0.00194
 *CO              0.87435  0.87150  0.87435  0.87058  0.86240  0.85091  0.83835  0.82607
 *CO2             0.00035  0.00167  0.00035  0.00212  0.00648  0.01307  0.02060  0.02819
 *H2              0.07017  0.07001  0.07017  0.06996  0.06967  0.06937  0.06909  0.06886
 H2O              0.00035  0.00111  0.00035  0.00133  0.00302  0.00501  0.00693  0.00862
 C(gr)            0.05435  0.05498  0.05435  0.05520  0.05721  0.06009  0.06325  0.06632

  * THERMODYNAMIC PROPERTIES FITTED TO 20000.K

 NOTE. WEIGHT FRACTION OF FUEL IN TOTAL FUELS AND OF OXIDANT IN TOTAL OXIDANTS










              THEORETICAL ROCKET PERFORMANCE ASSUMING EQUILIBRIUM

           COMPOSITION DURING EXPANSION FROM INFINITE AREA COMBUSTOR

 Pin =     5.0 PSIA
 CASE = rocketsample   

             REACTANT                    WT FRACTION      ENERGY      TEMP
                                          (SEE NOTE)     KJ/KG-MOL      K  
 FUEL        RP-1                         1.0000000    -24717.700    298.150
 OXIDANT     O2(L)                        1.0000000    -12979.000     90.170

 O/F=    1.00000  %FUEL= 50.000000  R,EQ.RATIO= 3.405666  PHI,EQ.RATIO= 3.405666

                 CHAMBER   THROAT     EXIT     EXIT     EXIT     EXIT
 Pinf/P            1.0000   1.8340   7.0000   8.0000   9.0000   10.000
 P, BAR           0.34474  0.18797  0.04925  0.04309  0.03830  0.03447
 T, K             1409.02  1223.18   962.98   948.26   936.24   926.15
 RHO, KG/CU M    4.4532-2 2.8010-2 9.5157-3 8.4856-3 7.6643-3 6.9937-3
 H, KJ/KG        -1087.08 -1524.54 -2307.74 -2376.19 -2435.53 -2487.82
 U, KJ/KG        -1861.21 -2195.63 -2825.29 -2884.02 -2935.30 -2980.75
 G, KJ/KG        -22181.5 -19836.7 -16724.5 -16572.5 -16451.9 -16353.2
 S, KJ/(KG)(K)    14.9709  14.9709  14.9709  14.9709  14.9709  14.9709

 M, (1/n)          15.134   15.155   15.471   15.526   15.576   15.622
 MW, MOL WT        14.164   14.172   14.205   14.207   14.208   14.209
 (dLV/dLP)t      -1.00081 -1.00219 -1.02104 -1.02394 -1.02648 -1.02872
 (dLV/dLT)p        1.0082   1.0280   1.3941   1.4582   1.5158   1.5678
 Cp, KJ/(KG)(K)    2.3615   2.4657   6.2664   7.0082   7.6869   8.3072
 GAMMAs            1.3084   1.3037   1.1705   1.1608   1.1535   1.1478
 SON VEL,M/SEC     1006.4    935.4    778.3    767.8    759.3    752.2
 MACH NUMBER        0.000    1.000    2.007    2.091    2.163    2.225

 PERFORMANCE PARAMETERS

 Ae/At                      1.0000   1.7622   1.9229   2.0816   2.2382
 CSTAR, M/SEC               1315.8   1315.8   1315.8   1315.8   1315.8
 CF                         0.7109   1.1875   1.2203   1.2481   1.2720
 Ivac, M/SEC                1652.8   1893.7   1922.0   1946.5   1968.3
 Isp, M/SEC                  935.4   1562.5   1605.7   1642.2   1673.8


 MASS FRACTIONS

 CH4              0.00042  0.00074  0.00205  0.00213  0.00219  0.00223
 *CO              0.87435  0.87150  0.81457  0.80395  0.79419  0.78520
 *CO2             0.00035  0.00167  0.03544  0.04223  0.04856  0.05445
 *H2              0.07017  0.07001  0.06867  0.06851  0.06837  0.06826
 H2O              0.00035  0.00111  0.01008  0.01134  0.01244  0.01340
 C(gr)            0.05435  0.05498  0.06919  0.07183  0.07425  0.07647

  * THERMODYNAMIC PROPERTIES FITTED TO 20000.K

 NOTE. WEIGHT FRACTION OF FUEL IN TOTAL FUELS AND OF OXIDANT IN TOTAL OXIDANTS










              THEORETICAL ROCKET PERFORMANCE ASSUMING EQUILIBRIUM

           COMPOSITION DURING EXPANSION FROM INFINITE AREA COMBUSTOR

 Pin =     6.0 PSIA
 CASE = rocketsample   

             REACTANT                    WT FRACTION      ENERGY      TEMP
                                          (SEE NOTE)     KJ/KG-MOL      K  
 FUEL        RP-1                         1.0000000    -24717.700    298.150
 OXIDANT     O2(L)                        1.0000000    -12979.000     90.170

 O/F=    1.00000  %FUEL= 50.000000  R,EQ.RATIO= 3.405666  PHI,EQ.RATIO= 3.405666

                 CHAMBER   THROAT     EXIT     EXIT     EXIT     EXIT     EXIT     EXIT
 Pinf/P            1.0000   1.8321   1.0000   2.0000   3.0000   4.0000   5.0000   6.0000
 P, BAR           0.41368  0.22580  0.41368  0.20684  0.13789  0.10342  0.08274  0.06895
 T, K             1409.56  1224.89  1409.56  1200.98  1102.81  1047.24  1011.91   987.20
 RHO, KG/CU M    5.3427-2 3.3613-2 5.3427-2 3.1419-2 2.2895-2 1.8166-2 1.5111-2 1.2964-2
 H, KJ/KG        -1087.08 -1524.03 -1087.08 -1582.35 -1837.57 -2005.95 -2130.50 -2228.87
 U, KJ/KG        -1861.39 -2195.79 -1861.39 -2240.69 -2439.85 -2575.27 -2678.04 -2760.71
 G, KJ/KG        -22048.4 -19739.1 -22048.4 -19441.9 -18237.2 -17579.3 -17178.3 -16909.2
 S, KJ/(KG)(K)    14.8708  14.8708  14.8708  14.8708  14.8708  14.8708  14.8708  14.8708

 M, (1/n)          15.136   15.161   15.136   15.168   15.224   15.294   15.366   15.433
 MW, MOL WT        14.166   14.175   14.166   14.177   14.188   14.197   14.204   14.208
 (dLV/dLP)t      -1.00097 -1.00258 -1.00097 -1.00305 -1.00666 -1.01100 -1.01525 -1.01906
 (dLV/dLT)p        1.0098   1.0329   1.0098   1.0401   1.1011   1.1815   1.2652   1.3440
 Cp, KJ/(KG)(K)    2.3708   2.5017   2.3708   2.5571   3.0972   3.8955   4.7778   5.6405
 GAMMAs            1.3077   1.3009   1.3077   1.2968   1.2612   1.2252   1.1991   1.1813
 SON VEL,M/SEC     1006.3    934.8   1006.3    924.0    871.6    835.2    810.3    792.6
 MACH NUMBER        0.000    1.000    0.000    1.077    1.406    1.623    1.783    1.907

 PERFORMANCE PARAMETERS

 Ae/At                      1.0000 684732.6   1.0049   1.1202   1.2760   1.4395   1.6040
 CSTAR, M/SEC               1316.5   1316.5   1316.5   1316.5   1316.5   1316.5   1316.5
 CF                         0.7101   0.0000   0.7560   0.9306   1.0297   1.0973   1.1478
 Ivac, M/SEC                1653.4*********   1656.7   1716.7   1775.6   1823.6   1863.1
 Isp, M/SEC                  934.8      0.0    995.3   1225.1   1355.6   1444.6   1511.2


 MASS FRACTIONS

 CH4              0.00050  0.00087  0.00050  0.00096  0.00141  0.00177  0.00202  0.00219
 *CO              0.87416  0.87082  0.87416  0.86976  0.86062  0.84833  0.83527  0.82268
 *CO2             0.00042  0.00195  0.00042  0.00248  0.00735  0.01437  0.02217  0.02991
 *H2              0.07014  0.06995  0.07014  0.06990  0.06957  0.06924  0.06895  0.06872
 H2O              0.00042  0.00131  0.00042  0.00156  0.00346  0.00561  0.00763  0.00939
 C(gr)            0.05435  0.05509  0.05435  0.05534  0.05759  0.06067  0.06396  0.06712

  * THERMODYNAMIC PROPERTIES FITTED TO 20000.K

 NOTE. WEIGHT FRACTION OF FUEL IN TOTAL FUELS AND OF OXIDANT IN TOTAL OXIDANTS










              THEORETICAL ROCKET PERFORMANCE ASSUMING EQUILIBRIUM

           COMPOSITION DURING EXPANSION FROM INFINITE AREA COMBUSTOR

 Pin =     6.0 PSIA
 CASE = rocketsample   

             REACTANT                    WT FRACTION      ENERGY      TEMP
                                          (SEE NOTE)     KJ/KG-MOL      K  
 FUEL        RP-1                         1.0000000    -24717.700    298.150
 OXIDANT     O2(L)                        1.0000000    -12979.000     90.170

 O/F=    1.00000  %FUEL= 50.000000  R,EQ.RATIO= 3.405666  PHI,EQ.RATIO= 3.405666

                 CHAMBER   THROAT     EXIT     EXIT     EXIT     EXIT
 Pinf/P            1.0000   1.8321   7.0000   8.0000   9.0000   10.000
 P, BAR           0.41368  0.22580  0.05910  0.05171  0.04596  0.04137
 T, K             1409.56  1224.89   968.66   954.04   942.07   932.01
 RHO, KG/CU M    5.3427-2 3.3613-2 1.1370-2 1.0138-2 9.1556-3 8.3540-3
 H, KJ/KG        -1087.08 -1524.03 -2309.92 -2378.67 -2438.27 -2490.80
 U, KJ/KG        -1861.39 -2195.79 -2829.69 -2888.75 -2940.31 -2985.99
 G, KJ/KG        -22048.4 -19739.1 -16714.7 -16566.0 -16447.6 -16350.5
 S, KJ/(KG)(K)    14.8708  14.8708  14.8708  14.8708  14.8708  14.8708

 M, (1/n)          15.136   15.161   15.495   15.551   15.602   15.649
 MW, MOL WT        14.166   14.175   14.211   14.213   14.214   14.215
 (dLV/dLP)t      -1.00097 -1.00258 -1.02240 -1.02531 -1.02785 -1.03009
 (dLV/dLT)p        1.0098   1.0329   1.4155   1.4796   1.5371   1.5888
 Cp, KJ/(KG)(K)    2.3708   2.5017   6.4449   7.1821   7.8542   8.4670
 GAMMAs            1.3077   1.3009   1.1688   1.1596   1.1527   1.1472
 SON VEL,M/SEC     1006.3    934.8    779.4    769.1    760.7    753.7
 MACH NUMBER        0.000    1.000    2.006    2.090    2.161    2.223

 PERFORMANCE PARAMETERS

 Ae/At                      1.0000   1.7672   1.9285   2.0877   2.2449
 CSTAR, M/SEC               1316.5   1316.5   1316.5   1316.5   1316.5
 CF                         0.7101   1.1879   1.2208   1.2487   1.2727
 Ivac, M/SEC                1653.4   1896.2   1924.6   1949.3   1971.1
 Isp, M/SEC                  934.8   1563.9   1607.2   1643.9   1675.5


 MASS FRACTIONS

 CH4              0.00050  0.00087  0.00230  0.00238  0.00244  0.00248
 *CO              0.87416  0.87082  0.81099  0.80025  0.79040  0.78135
 *CO2             0.00042  0.00195  0.03725  0.04410  0.05046  0.05636
 *H2              0.07014  0.06995  0.06852  0.06835  0.06821  0.06809
 H2O              0.00042  0.00131  0.01090  0.01220  0.01333  0.01432
 C(gr)            0.05435  0.05509  0.07004  0.07272  0.07517  0.07741

  * THERMODYNAMIC PROPERTIES FITTED TO 20000.K

 NOTE. WEIGHT FRACTION OF FUEL IN TOTAL FUELS AND OF OXIDANT IN TOTAL OXIDANTS










              THEORETICAL ROCKET PERFORMANCE ASSUMING EQUILIBRIUM

           COMPOSITION DURING EXPANSION FROM INFINITE AREA COMBUSTOR

 Pin =     7.0 PSIA
 CASE = rocketsample   

             REACTANT                    WT FRACTION      ENERGY      TEMP
                                          (SEE NOTE)     KJ/KG-MOL      K  
 FUEL        RP-1                         1.0000000    -24717.700    298.150
 OXIDANT     O2(L)                        1.0000000    -12979.000     90.170

 O/F=    1.00000  %FUEL= 50.000000  R,EQ.RATIO= 3.405666  PHI,EQ.RATIO= 3.405666

                 CHAMBER   THROAT     EXIT     EXIT     EXIT     EXIT     EXIT     EXIT
 Pinf/P            1.0000   1.8303   1.0000   2.0000   3.0000   4.0000   5.0000   6.0000
 P, BAR           0.48263  0.26368  0.48263  0.24132  0.16088  0.12066  0.09653  0.08044
 T, K             1410.09  1226.53  1410.09  1202.58  1105.78  1051.20  1016.40   991.98
 RHO, KG/CU M    6.2317-2 3.9215-2 6.2317-2 3.6623-2 2.6661-2 2.1136-2 1.7572-2 1.5072-2
 H, KJ/KG        -1087.08 -1523.57 -1087.08 -1582.58 -1838.14 -2006.91 -2131.83 -2230.54
 U, KJ/KG        -1861.56 -2195.98 -1861.56 -2241.50 -2441.56 -2577.77 -2681.14 -2764.25
 G, KJ/KG        -21936.9 -19659.2 -21936.9 -19364.1 -18188.3 -17550.0 -17160.5 -16898.0
 S, KJ/(KG)(K)    14.7861  14.7861  14.7861  14.7861  14.7861  14.7861  14.7861  14.7861

 M, (1/n)          15.138   15.166   15.138   15.175   15.236   15.311   15.385   15.454
 MW, MOL WT        14.168   14.178   14.168   14.181   14.193   14.203   14.209   14.214
 (dLV/dLP)t      -1.00113 -1.00296 -1.00113 -1.00349 -1.00742 -1.01199 -1.01635 -1.02022
 (dLV/dLT)p        1.0114   1.0376   1.0114   1.0458   1.1122   1.1966   1.2823   1.3620
 Cp, KJ/(KG)(K)    2.3801   2.5363   2.3801   2.5998   3.1897   4.0243   4.9237   5.7914
 GAMMAs            1.3071   1.2983   1.3071   1.2937   1.2566   1.2213   1.1964   1.1794
 SON VEL,M/SEC     1006.1    934.3   1006.1    923.3    870.8    835.0    810.7    793.4
 MACH NUMBER        0.000    1.000    0.000    1.078    1.407    1.624    1.783    1.906

 PERFORMANCE PARAMETERS

 Ae/At                      1.0000 794755.8   1.0050   1.1213   1.2781   1.4425   1.6076
 CSTAR, M/SEC               1317.2   1317.2   1317.2   1317.2   1317.2   1317.2   1317.2
 CF                         0.7093   0.0000   0.7557   0.9304   1.0297   1.0974   1.1481
 Ivac, M/SEC                1654.0*********   1657.4   1718.0   1777.2   1825.5   1865.2
 Isp, M/SEC                  934.3      0.0    995.5   1225.6   1356.3   1445.5   1512.3


 MASS FRACTIONS

 CH4              0.00058  0.00101  0.00058  0.00110  0.00160  0.00198  0.00224  0.00242
 *CO              0.87397  0.87017  0.87397  0.86897  0.85899  0.84604  0.83257  0.81975
 *CO2             0.00049  0.00223  0.00049  0.00283  0.00813  0.01551  0.02353  0.03138
 *H2              0.07011  0.06989  0.07011  0.06984  0.06948  0.06913  0.06883  0.06858
 H2O              0.00049  0.00150  0.00049  0.00179  0.00387  0.00615  0.00825  0.01007
 C(gr)            0.05435  0.05519  0.05435  0.05548  0.05793  0.06119  0.06458  0.06780

  * THERMODYNAMIC PROPERTIES FITTED TO 20000.K

 NOTE. WEIGHT FRACTION OF FUEL IN TOTAL FUELS AND OF OXIDANT IN TOTAL OXIDANTS










              THEORETICAL ROCKET PERFORMANCE ASSUMING EQUILIBRIUM

           COMPOSITION DURING EXPANSION FROM INFINITE AREA COMBUSTOR

 Pin =     7.0 PSIA
 CASE = rocketsample   

             REACTANT                    WT FRACTION      ENERGY      TEMP
                                          (SEE NOTE)     KJ/KG-MOL      K  
 FUEL        RP-1                         1.0000000    -24717.700    298.150
 OXIDANT     O2(L)                        1.0000000    -12979.000     90.170

 O/F=    1.00000  %FUEL= 50.000000  R,EQ.RATIO= 3.405666  PHI,EQ.RATIO= 3.405666

                 CHAMBER   THROAT     EXIT     EXIT     EXIT     EXIT
 Pinf/P            1.0000   1.8303   7.0000   8.0000   9.0000   10.000
 P, BAR           0.48263  0.26368  0.06895  0.06033  0.05363  0.04826
 T, K             1410.09  1226.53   973.59   959.04   947.11   937.06
 RHO, KG/CU M    6.2317-2 3.9215-2 1.3216-2 1.1782-2 1.0640-2 9.7084-3
 H, KJ/KG        -1087.08 -1523.57 -2311.87 -2380.88 -2440.71 -2493.45
 U, KJ/KG        -1861.56 -2195.98 -2833.57 -2892.90 -2944.69 -2990.57
 G, KJ/KG        -21936.9 -19659.2 -16707.5 -16561.4 -16444.8 -16348.9
 S, KJ/(KG)(K)    14.7861  14.7861  14.7861  14.7861  14.7861  14.7861

 M, (1/n)          15.138   15.166   15.516   15.573   15.625   15.672
 MW, MOL WT        14.168   14.178   14.217   14.219   14.220   14.221
 (dLV/dLP)t      -1.00113 -1.00296 -1.02359 -1.02651 -1.02905 -1.03128
 (dLV/dLT)p        1.0114   1.0376   1.4338   1.4980   1.5553   1.6068
 Cp, KJ/(KG)(K)    2.3801   2.5363   6.5944   7.3270   7.9930   8.5992
 GAMMAs            1.3071   1.2983   1.1675   1.1587   1.1521   1.1468
 SON VEL,M/SEC     1006.1    934.3    780.4    770.3    762.0    755.0
 MACH NUMBER        0.000    1.000    2.005    2.088    2.159    2.221

 PERFORMANCE PARAMETERS

 Ae/At                      1.0000   1.7714   1.9332   2.0928   2.2503
 CSTAR, M/SEC               1317.2   1317.2   1317.2   1317.2   1317.2
 CF                         0.7093   1.1882   1.2212   1.2491   1.2732
 Ivac, M/SEC                1654.0   1898.4   1926.9   1951.7   1973.5
 Isp, M/SEC                  934.3   1565.1   1608.6   1645.4   1677.1


 MASS FRACTIONS

 CH4              0.00058  0.00101  0.00253  0.00261  0.00267  0.00271
 *CO              0.87397  0.87017  0.80790  0.79707  0.78715  0.77805
 *CO2             0.00049  0.00223  0.03879  0.04568  0.05205  0.05797
 *H2              0.07011  0.06989  0.06838  0.06821  0.06807  0.06794
 H2O              0.00049  0.00150  0.01162  0.01295  0.01411  0.01512
 C(gr)            0.05435  0.05519  0.07077  0.07348  0.07595  0.07821

  * THERMODYNAMIC PROPERTIES FITTED TO 20000.K

 NOTE. WEIGHT FRACTION OF FUEL IN TOTAL FUELS AND OF OXIDANT IN TOTAL OXIDANTS










              THEORETICAL ROCKET PERFORMANCE ASSUMING EQUILIBRIUM

           COMPOSITION DURING EXPANSION FROM INFINITE AREA COMBUSTOR

 Pin =     8.0 PSIA
 CASE = rocketsample   

             REACTANT                    WT FRACTION      ENERGY      TEMP
                                          (SEE NOTE)     KJ/KG-MOL      K  
 FUEL        RP-1                         1.0000000    -24717.700    298.150
 OXIDANT     O2(L)                        1.0000000    -12979.000     90.170

 O/F=    1.00000  %FUEL= 50.000000  R,EQ.RATIO= 3.405666  PHI,EQ.RATIO= 3.405666

                 CHAMBER   THROAT     EXIT     EXIT     EXIT     EXIT     EXIT     EXIT
 Pinf/P            1.0000   1.8287   1.0000   2.0000   3.0000   4.0000   5.0000   6.0000
 P, BAR           0.55158  0.30162  0.55158  0.27579  0.18386  0.13789  0.11032  0.09193
 T, K             1410.62  1228.10  1410.62  1204.13  1108.54  1054.78  1020.42   996.22
 RHO, KG/CU M    7.1204-2 4.4816-2 7.1204-2 4.1819-2 3.0416-2 2.4097-2 2.0026-2 1.7172-2
 H, KJ/KG        -1087.08 -1523.16 -1087.08 -1582.80 -1838.68 -2007.81 -2133.06 -2232.06
 U, KJ/KG        -1861.73 -2196.18 -1861.73 -2242.29 -2443.16 -2580.06 -2683.93 -2767.42
 G, KJ/KG        -21841.2 -19592.0 -21841.2 -19298.8 -18148.3 -17526.5 -17146.3 -16889.3
 S, KJ/(KG)(K)    14.7128  14.7128  14.7128  14.7128  14.7128  14.7128  14.7128  14.7128

 M, (1/n)          15.141   15.172   15.141   15.181   15.248   15.325   15.402   15.472
 MW, MOL WT        14.170   14.182   14.170   14.184   14.198   14.208   14.215   14.219
 (dLV/dLP)t      -1.00128 -1.00333 -1.00128 -1.00391 -1.00814 -1.01289 -1.01734 -1.02126
 (dLV/dLT)p        1.0129   1.0422   1.0129   1.0512   1.1225   1.2101   1.2975   1.3778
 Cp, KJ/(KG)(K)    2.3892   2.5694   2.3892   2.6406   3.2741   4.1384   5.0508   5.9216
 GAMMAs            1.3064   1.2959   1.3064   1.2908   1.2527   1.2181   1.1941   1.1779
 SON VEL,M/SEC     1006.0    933.9   1006.0    922.7    870.2    834.9    811.1    794.1
 MACH NUMBER        0.000    1.000    0.000    1.079    1.409    1.625    1.783    1.906

 PERFORMANCE PARAMETERS

 Ae/At                      1.0000 1322432.   1.0051   1.1223   1.2799   1.4450   1.6107
 CSTAR, M/SEC               1317.9   1317.9   1317.9   1317.9   1317.9   1317.9   1317.9
 CF                         0.7086   0.0000   0.7555   0.9303   1.0297   1.0975   1.1482
 Ivac, M/SEC                1654.6*********   1658.0   1719.1   1778.7   1827.2   1867.0
 Isp, M/SEC                  933.9      0.0    995.7   1226.0   1357.0   1446.4   1513.3


 MASS FRACTIONS

 CH4              0.00067  0.00114  0.00067  0.00124  0.00178  0.00218  0.00245  0.00263
 *CO              0.87378  0.86955  0.87378  0.86821  0.85747  0.84397  0.83017  0.81715
 *CO2             0.00055  0.00249  0.00055  0.00316  0.00885  0.01653  0.02472  0.03267
 *H2              0.07008  0.06984  0.07008  0.06978  0.06939  0.06902  0.06871  0.06846
 H2O              0.00056  0.00169  0.00056  0.00201  0.00425  0.00665  0.00882  0.01069
 C(gr)            0.05436  0.05529  0.05436  0.05561  0.05825  0.06165  0.06513  0.06841

  * THERMODYNAMIC PROPERTIES FITTED TO 20000.K

 NOTE. WEIGHT FRACTION OF FUEL IN TOTAL FUELS AND OF OXIDANT IN TOTAL OXIDANTS










              THEORETICAL ROCKET PERFORMANCE ASSUMING EQUILIBRIUM

           COMPOSITION DURING EXPANSION FROM INFINITE AREA COMBUSTOR

 Pin =     8.0 PSIA
 CASE = rocketsample   

             REACTANT                    WT FRACTION      ENERGY      TEMP
                                          (SEE NOTE)     KJ/KG-MOL      K  
 FUEL        RP-1                         1.0000000    -24717.700    298.150
 OXIDANT     O2(L)                        1.0000000    -12979.000     90.170

 O/F=    1.00000  %FUEL= 50.000000  R,EQ.RATIO= 3.405666  PHI,EQ.RATIO= 3.405666

                 CHAMBER   THROAT     EXIT     EXIT     EXIT     EXIT
 Pinf/P            1.0000   1.8287   7.0000   8.0000   9.0000   10.000
 P, BAR           0.55158  0.30162  0.07880  0.06895  0.06129  0.05516
 T, K             1410.62  1228.10   977.95   963.46   951.55   941.50
 RHO, KG/CU M    7.1204-2 4.4816-2 1.5055-2 1.3421-2 1.2120-2 1.1058-2
 H, KJ/KG        -1087.08 -1523.16 -2313.65 -2382.89 -2442.92 -2495.83
 U, KJ/KG        -1861.73 -2196.18 -2837.03 -2896.61 -2948.60 -2994.65
 G, KJ/KG        -21841.2 -19592.0 -16702.0 -16558.1 -16442.9 -16348.0
 S, KJ/(KG)(K)    14.7128  14.7128  14.7128  14.7128  14.7128  14.7128

 M, (1/n)          15.141   15.172   15.536   15.593   15.646   15.693
 MW, MOL WT        14.170   14.182   14.222   14.224   14.226   14.227
 (dLV/dLP)t      -1.00128 -1.00333 -1.02464 -1.02757 -1.03011 -1.03234
 (dLV/dLT)p        1.0129   1.0422   1.4498   1.5140   1.5712   1.6225
 Cp, KJ/(KG)(K)    2.3892   2.5694   6.7226   7.4507   8.1112   8.7113
 GAMMAs            1.3064   1.2959   1.1665   1.1580   1.1516   1.1465
 SON VEL,M/SEC     1006.0    933.9    781.3    771.3    763.1    756.2
 MACH NUMBER        0.000    1.000    2.005    2.087    2.158    2.220

 PERFORMANCE PARAMETERS

 Ae/At                      1.0000   1.7749   1.9371   2.0971   2.2549
 CSTAR, M/SEC               1317.9   1317.9   1317.9   1317.9   1317.9
 CF                         0.7086   1.1884   1.2215   1.2495   1.2737
 Ivac, M/SEC                1654.6   1900.4   1929.0   1953.8   1975.7
 Isp, M/SEC                  933.9   1566.2   1609.8   1646.7   1678.5


 MASS FRACTIONS

 CH4              0.00067  0.00114  0.00275  0.00283  0.00289  0.00293
 *CO              0.87378  0.86955  0.80519  0.79427  0.78429  0.77515
 *CO2             0.00055  0.00249  0.04013  0.04704  0.05343  0.05936
 *H2              0.07008  0.06984  0.06825  0.06808  0.06793  0.06781
 H2O              0.00056  0.00169  0.01227  0.01364  0.01482  0.01585
 C(gr)            0.05436  0.05529  0.07141  0.07415  0.07663  0.07891

  * THERMODYNAMIC PROPERTIES FITTED TO 20000.K

 NOTE. WEIGHT FRACTION OF FUEL IN TOTAL FUELS AND OF OXIDANT IN TOTAL OXIDANTS










              THEORETICAL ROCKET PERFORMANCE ASSUMING EQUILIBRIUM

           COMPOSITION DURING EXPANSION FROM INFINITE AREA COMBUSTOR

 Pin =     9.0 PSIA
 CASE = rocketsample   

             REACTANT                    WT FRACTION      ENERGY      TEMP
                                          (SEE NOTE)     KJ/KG-MOL      K  
 FUEL        RP-1                         1.0000000    -24717.700    298.150
 OXIDANT     O2(L)                        1.0000000    -12979.000     90.170

 O/F=    1.00000  %FUEL= 50.000000  R,EQ.RATIO= 3.405666  PHI,EQ.RATIO= 3.405666

                 CHAMBER   THROAT     EXIT     EXIT     EXIT     EXIT     EXIT     EXIT
 Pinf/P            1.0000   1.8272   1.0000   2.0000   3.0000   4.0000   5.0000   6.0000
 P, BAR           0.62053  0.33960  0.62053  0.31026  0.20684  0.15513  0.12411  0.10342
 T, K             1411.14  1229.62  1411.14  1205.62  1111.11  1058.06  1024.07  1000.05
 RHO, KG/CU M    8.0088-2 5.0415-2 8.0088-2 4.7008-2 3.4163-2 2.7049-2 2.2472-2 1.9265-2
 H, KJ/KG        -1087.08 -1522.78 -1087.08 -1583.02 -1839.20 -2008.66 -2134.21 -2233.47
 U, KJ/KG        -1861.89 -2196.39 -1861.89 -2243.05 -2444.67 -2582.17 -2686.49 -2770.31
 G, KJ/KG        -21757.6 -19534.3 -21757.6 -19243.0 -18114.9 -17507.2 -17134.9 -16882.3
 S, KJ/(KG)(K)    14.6481  14.6481  14.6481  14.6481  14.6481  14.6481  14.6481  14.6481

 M, (1/n)          15.143   15.178   15.143   15.187   15.258   15.339   15.417   15.489
 MW, MOL WT        14.172   14.185   14.172   14.188   14.202   14.213   14.220   14.224
 (dLV/dLP)t      -1.00144 -1.00368 -1.00144 -1.00432 -1.00881 -1.01372 -1.01825 -1.02220
 (dLV/dLT)p        1.0145   1.0466   1.0145   1.0565   1.1321   1.2224   1.3111   1.3920
 Cp, KJ/(KG)(K)    2.3982   2.6013   2.3982   2.6797   3.3520   4.2408   5.1632   6.0360
 GAMMAs            1.3058   1.2936   1.3058   1.2882   1.2493   1.2155   1.1923   1.1766
 SON VEL,M/SEC     1005.9    933.5   1005.9    922.1    869.7    834.9    811.5    794.8
 MACH NUMBER        0.000    1.000    0.000    1.080    1.410    1.626    1.783    1.905

 PERFORMANCE PARAMETERS

 Ae/At                      1.0000 579047.1   1.0052   1.1232   1.2815   1.4472   1.6133
 CSTAR, M/SEC               1318.5   1318.5   1318.5   1318.5   1318.5   1318.5   1318.5
 CF                         0.7080   0.0000   0.7553   0.9302   1.0296   1.0975   1.1484
 Ivac, M/SEC                1655.1*********   1658.7   1720.1   1780.1   1828.8   1868.7
 Isp, M/SEC                  933.5      0.0    995.9   1226.5   1357.6   1447.2   1514.2


 MASS FRACTIONS

 CH4              0.00075  0.00127  0.00075  0.00138  0.00196  0.00238  0.00265  0.00283
 *CO              0.87359  0.86895  0.87359  0.86748  0.85606  0.84208  0.82800  0.81482
 *CO2             0.00062  0.00275  0.00062  0.00348  0.00952  0.01745  0.02578  0.03381
 *H2              0.07006  0.06979  0.07006  0.06972  0.06931  0.06892  0.06860  0.06834
 H2O              0.00062  0.00187  0.00062  0.00222  0.00461  0.00711  0.00934  0.01125
 C(gr)            0.05436  0.05538  0.05436  0.05573  0.05854  0.06206  0.06562  0.06894

  * THERMODYNAMIC PROPERTIES FITTED TO 20000.K

 NOTE. WEIGHT FRACTION OF FUEL IN TOTAL FUELS AND OF OXIDANT IN TOTAL OXIDANTS










              THEORETICAL ROCKET PERFORMANCE ASSUMING EQUILIBRIUM

           COMPOSITION DURING EXPANSION FROM INFINITE AREA COMBUSTOR

 Pin =     9.0 PSIA
 CASE = rocketsample   

             REACTANT                    WT FRACTION      ENERGY      TEMP
                                          (SEE NOTE)     KJ/KG-MOL      K  
 FUEL        RP-1                         1.0000000    -24717.700    298.150
 OXIDANT     O2(L)                        1.0000000    -12979.000     90.170

 O/F=    1.00000  %FUEL= 50.000000  R,EQ.RATIO= 3.405666  PHI,EQ.RATIO= 3.405666

                 CHAMBER   THROAT     EXIT     EXIT     EXIT     EXIT
 Pinf/P            1.0000   1.8272   7.0000   8.0000   9.0000   10.000
 P, BAR           0.62053  0.33960  0.08865  0.07757  0.06895  0.06205
 T, K             1411.14  1229.62   981.87   967.42   955.53   945.48
 RHO, KG/CU M    8.0088-2 5.0415-2 1.6889-2 1.5054-2 1.3594-2 1.2403-2
 H, KJ/KG        -1087.08 -1522.78 -2315.29 -2384.73 -2444.94 -2498.01
 U, KJ/KG        -1861.89 -2196.39 -2840.18 -2899.97 -2952.13 -2998.33
 G, KJ/KG        -21757.6 -19534.3 -16697.8 -16555.6 -16441.6 -16347.5
 S, KJ/(KG)(K)    14.6481  14.6481  14.6481  14.6481  14.6481  14.6481

 M, (1/n)          15.143   15.178   15.553   15.612   15.664   15.712
 MW, MOL WT        14.172   14.185   14.227   14.229   14.231   14.232
 (dLV/dLP)t      -1.00144 -1.00368 -1.02560 -1.02852 -1.03107 -1.03329
 (dLV/dLT)p        1.0145   1.0466   1.4641   1.5282   1.5853   1.6364
 Cp, KJ/(KG)(K)    2.3982   2.6013   6.8345   7.5584   8.2137   8.8085
 GAMMAs            1.3058   1.2936   1.1656   1.1575   1.1512   1.1462
 SON VEL,M/SEC     1005.9    933.5    782.2    772.2    764.1    757.3
 MACH NUMBER        0.000    1.000    2.004    2.086    2.157    2.218

 PERFORMANCE PARAMETERS

 Ae/At                      1.0000   1.7779   1.9405   2.1008   2.2588
 CSTAR, M/SEC               1318.5   1318.5   1318.5   1318.5   1318.5
 CF                         0.7080   1.1887   1.2218   1.2498   1.2740
 Ivac, M/SEC                1655.1   1902.2   1930.8   1955.7   1977.7
 Isp, M/SEC                  933.5   1567.3   1611.0   1647.9   1679.8


 MASS FRACTIONS

 CH4              0.00075  0.00127  0.00295  0.00304  0.00309  0.00313
 *CO              0.87359  0.86895  0.80276  0.79177  0.78175  0.77258
 *CO2             0.00062  0.00275  0.04131  0.04824  0.05465  0.06057
 *H2              0.07006  0.06979  0.06813  0.06796  0.06781  0.06768
 H2O              0.00062  0.00187  0.01287  0.01426  0.01546  0.01651
 C(gr)            0.05436  0.05538  0.07198  0.07473  0.07724  0.07953

  * THERMODYNAMIC PROPERTIES FITTED TO 20000.K

 NOTE. WEIGHT FRACTION OF FUEL IN TOTAL FUELS AND OF OXIDANT IN TOTAL OXIDANTS










              THEORETICAL ROCKET PERFORMANCE ASSUMING EQUILIBRIUM

           COMPOSITION DURING EXPANSION FROM INFINITE AREA COMBUSTOR

 Pin =    10.0 PSIA
 CASE = rocketsample   

             REACTANT                    WT FRACTION      ENERGY      TEMP
                                          (SEE NOTE)     KJ/KG-MOL      K  
 FUEL        RP-1                         1.0000000    -24717.700    298.150
 OXIDANT     O2(L)                        1.0000000    -12979.000     90.170

 O/F=    1.00000  %FUEL= 50.000000  R,EQ.RATIO= 3.405666  PHI,EQ.RATIO= 3.405666

                 CHAMBER   THROAT     EXIT     EXIT     EXIT     EXIT     EXIT     EXIT
 Pinf/P            1.0000   1.8259   1.0000   2.0000   3.0000   4.0000   5.0000   6.0000
 P, BAR           0.68947  0.37762  0.68947  0.34474  0.22982  0.17237  0.13789  0.11491
 T, K             1411.66  1231.08  1411.66  1207.06  1113.54  1061.09  1027.41  1003.54
 RHO, KG/CU M    8.8967-2 5.6012-2 8.8967-2 5.2189-2 3.7901-2 2.9994-2 2.4910-2 2.1352-2
 H, KJ/KG        -1087.08 -1522.44 -1087.08 -1583.23 -1839.71 -2009.46 -2135.29 -2234.79
 U, KJ/KG        -1862.06 -2196.61 -1862.06 -2243.78 -2446.09 -2584.14 -2688.85 -2772.96
 G, KJ/KG        -21683.6 -19484.2 -21683.6 -19194.5 -18086.5 -17491.0 -17125.4 -16876.7
 S, KJ/(KG)(K)    14.5902  14.5902  14.5902  14.5902  14.5902  14.5902  14.5902  14.5902

 M, (1/n)          15.145   15.183   15.145   15.194   15.269   15.352   15.432   15.504
 MW, MOL WT        14.174   14.188   14.174   14.191   14.206   14.217   14.224   14.229
 (dLV/dLP)t      -1.00159 -1.00402 -1.00159 -1.00471 -1.00944 -1.01449 -1.01908 -1.02306
 (dLV/dLT)p        1.0160   1.0508   1.0160   1.0615   1.1410   1.2337   1.3235   1.4048
 Cp, KJ/(KG)(K)    2.4072   2.6320   2.4072   2.7172   3.4240   4.3337   5.2640   6.1376
 GAMMAs            1.3052   1.2915   1.3052   1.2857   1.2463   1.2132   1.1908   1.1756
 SON VEL,M/SEC     1005.7    933.1   1005.7    921.6    869.3    835.0    811.9    795.4
 MACH NUMBER        0.000    1.000    0.000    1.081    1.411    1.627    1.783    1.905

 PERFORMANCE PARAMETERS

 Ae/At                      1.0000 859709.6   1.0053   1.1240   1.2830   1.4491   1.6156
 CSTAR, M/SEC               1319.2   1319.2   1319.2   1319.2   1319.2   1319.2   1319.2
 CF                         0.7074   0.0000   0.7551   0.9300   1.0296   1.0976   1.1485
 Ivac, M/SEC                1655.6*********   1659.2   1721.1   1781.3   1830.2   1870.3
 Isp, M/SEC                  933.1      0.0    996.1   1226.9   1358.2   1447.9   1515.1


 MASS FRACTIONS

 CH4              0.00083  0.00139  0.00083  0.00151  0.00213  0.00256  0.00284  0.00303
 *CO              0.87341  0.86836  0.87341  0.86677  0.85475  0.84035  0.82603  0.81271
 *CO2             0.00068  0.00299  0.00068  0.00378  0.01013  0.01828  0.02674  0.03483
 *H2              0.07003  0.06974  0.07003  0.06966  0.06923  0.06883  0.06850  0.06824
 H2O              0.00069  0.00204  0.00069  0.00242  0.00495  0.00754  0.00983  0.01177
 C(gr)            0.05436  0.05547  0.05436  0.05585  0.05881  0.06244  0.06606  0.06943

  * THERMODYNAMIC PROPERTIES FITTED TO 20000.K

 NOTE. WEIGHT FRACTION OF FUEL IN TOTAL FUELS AND OF OXIDANT IN TOTAL OXIDANTS










              THEORETICAL ROCKET PERFORMANCE ASSUMING EQUILIBRIUM

           COMPOSITION DURING EXPANSION FROM INFINITE AREA COMBUSTOR

 Pin =    10.0 PSIA
 CASE = rocketsample   

             REACTANT                    WT FRACTION      ENERGY      TEMP
                                          (SEE NOTE)     KJ/KG-MOL      K  
 FUEL        RP-1                         1.0000000    -24717.700    298.150
 OXIDANT     O2(L)                        1.0000000    -12979.000     90.170

 O/F=    1.00000  %FUEL= 50.000000  R,EQ.RATIO= 3.405666  PHI,EQ.RATIO= 3.405666

                 CHAMBER   THROAT     EXIT     EXIT     EXIT     EXIT
 Pinf/P            1.0000   1.8259   7.0000   8.0000   9.0000   10.000
 P, BAR           0.68947  0.37762  0.09850  0.08618  0.07661  0.06895
 T, K             1411.66  1231.08   985.43   971.02   959.14   949.09
 RHO, KG/CU M    8.8967-2 5.6012-2 1.8717-2 1.6683-2 1.5064-2 1.3744-2
 H, KJ/KG        -1087.08 -1522.44 -2316.82 -2386.44 -2446.81 -2500.02
 U, KJ/KG        -1862.06 -2196.61 -2843.06 -2903.04 -2955.36 -3001.69
 G, KJ/KG        -21683.6 -19484.2 -16694.5 -16553.8 -16440.9 -16347.4
 S, KJ/(KG)(K)    14.5902  14.5902  14.5902  14.5902  14.5902  14.5902

 M, (1/n)          15.145   15.183   15.570   15.628   15.681   15.730
 MW, MOL WT        14.174   14.188   14.232   14.234   14.236   14.237
 (dLV/dLP)t      -1.00159 -1.00402 -1.02647 -1.02940 -1.03194 -1.03416
 (dLV/dLT)p        1.0160   1.0508   1.4770   1.5411   1.5980   1.6489
 Cp, KJ/(KG)(K)    2.4072   2.6320   6.9337   7.6535   8.3041   8.8939
 GAMMAs            1.3052   1.2915   1.1649   1.1570   1.1509   1.1460
 SON VEL,M/SEC     1005.7    933.1    783.0    773.1    765.0    758.2
 MACH NUMBER        0.000    1.000    2.003    2.085    2.156    2.217

 PERFORMANCE PARAMETERS

 Ae/At                      1.0000   1.7806   1.9434   2.1040   2.2623
 CSTAR, M/SEC               1319.2   1319.2   1319.2   1319.2   1319.2
 CF                         0.7074   1.1888   1.2220   1.2501   1.2743
 Ivac, M/SEC                1655.6   1903.8   1932.5   1957.5   1979.5
 Isp, M/SEC                  933.1   1568.3   1612.1   1649.1   1681.0


 MASS FRACTIONS

 CH4              0.00083  0.00139  0.00315  0.00323  0.00329  0.00333
 *CO              0.87341  0.86836  0.80055  0.78951  0.77945  0.77025
 *CO2             0.00068  0.00299  0.04236  0.04932  0.05573  0.06166
 *H2              0.07003  0.06974  0.06802  0.06784  0.06769  0.06756
 H2O              0.00069  0.00204  0.01342  0.01483  0.01605  0.01711
 C(gr)            0.05436  0.05547  0.07249  0.07526  0.07778  0.08008

  * THERMODYNAMIC PROPERTIES FITTED TO 20000.K

 NOTE. WEIGHT FRACTION OF FUEL IN TOTAL FUELS AND OF OXIDANT IN TOTAL OXIDANTS










              THEORETICAL ROCKET PERFORMANCE ASSUMING EQUILIBRIUM

           COMPOSITION DURING EXPANSION FROM INFINITE AREA COMBUSTOR

 Pin =    11.0 PSIA
 CASE = rocketsample   

             REACTANT                    WT FRACTION      ENERGY      TEMP
                                          (SEE NOTE)     KJ/KG-MOL      K  
 FUEL        RP-1                         1.0000000    -24717.700    298.150
 OXIDANT     O2(L)                        1.0000000    -12979.000     90.170

 O/F=    1.00000  %FUEL= 50.000000  R,EQ.RATIO= 3.405666  PHI,EQ.RATIO= 3.405666

                 CHAMBER   THROAT     EXIT     EXIT     EXIT     EXIT     EXIT     EXIT
 Pinf/P            1.0000   1.8246   1.0000   2.0000   3.0000   4.0000   5.0000   6.0000
 P, BAR           0.75842  0.41567  0.75842  0.37921  0.25281  0.18961  0.15168  0.12640
 T, K             1412.17  1232.49  1412.17  1208.46  1115.83  1063.90  1030.49  1006.75
 RHO, KG/CU M    9.7843-2 6.1608-2 9.7843-2 5.7365-2 4.1632-2 3.2932-2 2.7343-2 2.3434-2
 H, KJ/KG        -1087.08 -1522.12 -1087.08 -1583.44 -1840.19 -2010.23 -2136.31 -2236.03
 U, KJ/KG        -1862.22 -2196.84 -1862.22 -2244.49 -2447.43 -2585.98 -2691.05 -2775.42
 G, KJ/KG        -21617.2 -19440.0 -21617.2 -19151.9 -18062.0 -17477.2 -17117.5 -16872.1
 S, KJ/(KG)(K)    14.5379  14.5379  14.5379  14.5379  14.5379  14.5379  14.5379  14.5379

 M, (1/n)          15.148   15.188   15.148   15.200   15.278   15.364   15.445   15.519
 MW, MOL WT        14.176   14.191   14.176   14.194   14.211   14.222   14.229   14.234
 (dLV/dLP)t      -1.00174 -1.00436 -1.00174 -1.00510 -1.01004 -1.01520 -1.01985 -1.02385
 (dLV/dLT)p        1.0175   1.0549   1.0175   1.0664   1.1494   1.2441   1.3348   1.4165
 Cp, KJ/(KG)(K)    2.4161   2.6616   2.4161   2.7532   3.4912   4.4185   5.3551   6.2290
 GAMMAs            1.3046   1.2895   1.3046   1.2835   1.2436   1.2112   1.1894   1.1747
 SON VEL,M/SEC     1005.6    932.8   1005.6    921.1    869.0    835.1    812.3    796.0
 MACH NUMBER        0.000    1.000    0.000    1.082    1.412    1.627    1.783    1.904

 PERFORMANCE PARAMETERS

 Ae/At                      1.0000 895578.2   1.0054   1.1247   1.2843   1.4508   1.6177
 CSTAR, M/SEC               1319.8   1319.8   1319.8   1319.8   1319.8   1319.8   1319.8
 CF                         0.7068   0.0000   0.7549   0.9299   1.0296   1.0976   1.1486
 Ivac, M/SEC                1656.1*********   1659.8   1722.1   1782.5   1831.5   1871.7
 Isp, M/SEC                  932.8      0.0    996.3   1227.3   1358.8   1448.6   1515.9


 MASS FRACTIONS

 CH4              0.00091  0.00152  0.00091  0.00165  0.00229  0.00274  0.00302  0.00321
 *CO              0.87322  0.86780  0.87322  0.86609  0.85351  0.83874  0.82422  0.81077
 *CO2             0.00075  0.00323  0.00075  0.00407  0.01071  0.01905  0.02761  0.03576
 *H2              0.07000  0.06969  0.07000  0.06961  0.06915  0.06874  0.06840  0.06814
 H2O              0.00076  0.00221  0.00076  0.00262  0.00528  0.00794  0.01028  0.01226
 C(gr)            0.05436  0.05556  0.05436  0.05596  0.05906  0.06278  0.06646  0.06986

  * THERMODYNAMIC PROPERTIES FITTED TO 20000.K

 NOTE. WEIGHT FRACTION OF FUEL IN TOTAL FUELS AND OF OXIDANT IN TOTAL OXIDANTS










              THEORETICAL ROCKET PERFORMANCE ASSUMING EQUILIBRIUM

           COMPOSITION DURING EXPANSION FROM INFINITE AREA COMBUSTOR

 Pin =    11.0 PSIA
 CASE = rocketsample   

             REACTANT                    WT FRACTION      ENERGY      TEMP
                                          (SEE NOTE)     KJ/KG-MOL      K  
 FUEL        RP-1                         1.0000000    -24717.700    298.150
 OXIDANT     O2(L)                        1.0000000    -12979.000     90.170

 O/F=    1.00000  %FUEL= 50.000000  R,EQ.RATIO= 3.405666  PHI,EQ.RATIO= 3.405666

                 CHAMBER   THROAT     EXIT     EXIT     EXIT     EXIT
 Pinf/P            1.0000   1.8246   7.0000   8.0000   9.0000   10.000
 P, BAR           0.75842  0.41567  0.10835  0.09480  0.08427  0.07584
 T, K             1412.17  1232.49   988.70   974.31   962.44   952.39
 RHO, KG/CU M    9.7843-2 6.1608-2 2.0540-2 1.8307-2 1.6530-2 1.5081-2
 H, KJ/KG        -1087.08 -1522.12 -2318.25 -2388.03 -2448.55 -2501.89
 U, KJ/KG        -1862.22 -2196.84 -2845.73 -2905.87 -2958.33 -3004.79
 G, KJ/KG        -21617.2 -19440.0 -16692.0 -16552.5 -16440.4 -16347.6
 S, KJ/(KG)(K)    14.5379  14.5379  14.5379  14.5379  14.5379  14.5379

 M, (1/n)          15.148   15.188   15.584   15.644   15.697   15.746
 MW, MOL WT        14.176   14.191   14.237   14.239   14.240   14.241
 (dLV/dLP)t      -1.00174 -1.00436 -1.02727 -1.03020 -1.03274 -1.03496
 (dLV/dLT)p        1.0175   1.0549   1.4888   1.5527   1.6095   1.6602
 Cp, KJ/(KG)(K)    2.4161   2.6616   7.0226   7.7385   8.3847   8.9699
 GAMMAs            1.3046   1.2895   1.1643   1.1566   1.1506   1.1459
 SON VEL,M/SEC     1005.6    932.8    783.7    773.9    765.9    759.1
 MACH NUMBER        0.000    1.000    2.002    2.084    2.155    2.216

 PERFORMANCE PARAMETERS

 Ae/At                      1.0000   1.7830   1.9460   2.1068   2.2653
 CSTAR, M/SEC               1319.8   1319.8   1319.8   1319.8   1319.8
 CF                         0.7068   1.1890   1.2222   1.2503   1.2746
 Ivac, M/SEC                1656.1   1905.3   1934.1   1959.1   1981.1
 Isp, M/SEC                  932.8   1569.2   1613.0   1650.1   1682.1


 MASS FRACTIONS

 CH4              0.00091  0.00152  0.00334  0.00342  0.00347  0.00351
 *CO              0.87322  0.86780  0.79854  0.78745  0.77736  0.76813
 *CO2             0.00075  0.00323  0.04332  0.05029  0.05671  0.06264
 *H2              0.07000  0.06969  0.06792  0.06774  0.06758  0.06745
 H2O              0.00076  0.00221  0.01393  0.01536  0.01660  0.01768
 C(gr)            0.05436  0.05556  0.07295  0.07574  0.07828  0.08059

  * THERMODYNAMIC PROPERTIES FITTED TO 20000.K

 NOTE. WEIGHT FRACTION OF FUEL IN TOTAL FUELS AND OF OXIDANT IN TOTAL OXIDANTS










              THEORETICAL ROCKET PERFORMANCE ASSUMING EQUILIBRIUM

           COMPOSITION DURING EXPANSION FROM INFINITE AREA COMBUSTOR

 Pin =    12.0 PSIA
 CASE = rocketsample   

             REACTANT                    WT FRACTION      ENERGY      TEMP
                                          (SEE NOTE)     KJ/KG-MOL      K  
 FUEL        RP-1                         1.0000000    -24717.700    298.150
 OXIDANT     O2(L)                        1.0000000    -12979.000     90.170

 O/F=    1.00000  %FUEL= 50.000000  R,EQ.RATIO= 3.405666  PHI,EQ.RATIO= 3.405666

                 CHAMBER   THROAT     EXIT     EXIT     EXIT     EXIT     EXIT     EXIT
 Pinf/P            1.0000   1.8233   1.0000   2.0000   3.0000   4.0000   5.0000   6.0000
 P, BAR           0.82737  0.45377  0.82737  0.41368  0.27579  0.20684  0.16547  0.13789
 T, K             1412.68  1233.86  1412.68  1209.81  1117.99  1066.54  1033.35  1009.73
 RHO, KG/CU M    1.0672-1 6.7201-2 1.0672-1 6.2533-2 4.5356-2 3.5863-2 2.9771-2 2.5511-2
 H, KJ/KG        -1087.08 -1521.83 -1087.08 -1583.64 -1840.66 -2010.96 -2137.27 -2237.19
 U, KJ/KG        -1862.38 -2197.07 -1862.38 -2245.18 -2448.72 -2587.71 -2693.10 -2777.72
 G, KJ/KG        -21557.1 -19400.6 -21557.1 -19114.0 -18040.6 -17465.3 -17110.8 -16868.3
 S, KJ/(KG)(K)    14.4902  14.4902  14.4902  14.4902  14.4902  14.4902  14.4902  14.4902

 M, (1/n)          15.150   15.193   15.150   15.205   15.287   15.375   15.458   15.532
 MW, MOL WT        14.178   14.194   14.178   14.198   14.214   14.226   14.233   14.238
 (dLV/dLP)t      -1.00189 -1.00468 -1.00189 -1.00547 -1.01061 -1.01588 -1.02057 -1.02459
 (dLV/dLT)p        1.0190   1.0589   1.0190   1.0711   1.1573   1.2538   1.3453   1.4273
 Cp, KJ/(KG)(K)    2.4248   2.6902   2.4248   2.7879   3.5540   4.4966   5.4383   6.3120
 GAMMAs            1.3040   1.2877   1.3040   1.2813   1.2412   1.2095   1.1883   1.1739
 SON VEL,M/SEC     1005.5    932.5   1005.5    920.7    868.8    835.2    812.7    796.6
 MACH NUMBER        0.000    1.000    0.000    1.082    1.413    1.628    1.783    1.904

 PERFORMANCE PARAMETERS

 Ae/At                      1.0000 1567277.   1.0055   1.1254   1.2854   1.4524   1.6195
 CSTAR, M/SEC               1320.3   1320.3   1320.3   1320.3   1320.3   1320.3   1320.3
 CF                         0.7062   0.0000   0.7548   0.9298   1.0295   1.0976   1.1487
 Ivac, M/SEC                1656.6*********   1660.4   1723.0   1783.6   1832.8   1873.0
 Isp, M/SEC                  932.5      0.0    996.6   1227.7   1359.3   1449.3   1516.6


 MASS FRACTIONS

 CH4              0.00099  0.00164  0.00099  0.00178  0.00245  0.00291  0.00320  0.00339
 *CO              0.87304  0.86725  0.87304  0.86543  0.85234  0.83724  0.82253  0.80898
 *CO2             0.00081  0.00346  0.00081  0.00436  0.01126  0.01977  0.02841  0.03661
 *H2              0.06998  0.06964  0.06998  0.06955  0.06908  0.06865  0.06831  0.06804
 H2O              0.00082  0.00238  0.00082  0.00281  0.00558  0.00832  0.01071  0.01271
 C(gr)            0.05436  0.05564  0.05436  0.05607  0.05930  0.06311  0.06683  0.07027

  * THERMODYNAMIC PROPERTIES FITTED TO 20000.K

 NOTE. WEIGHT FRACTION OF FUEL IN TOTAL FUELS AND OF OXIDANT IN TOTAL OXIDANTS










              THEORETICAL ROCKET PERFORMANCE ASSUMING EQUILIBRIUM

           COMPOSITION DURING EXPANSION FROM INFINITE AREA COMBUSTOR

 Pin =    12.0 PSIA
 CASE = rocketsample   

             REACTANT                    WT FRACTION      ENERGY      TEMP
                                          (SEE NOTE)     KJ/KG-MOL      K  
 FUEL        RP-1                         1.0000000    -24717.700    298.150
 OXIDANT     O2(L)                        1.0000000    -12979.000     90.170

 O/F=    1.00000  %FUEL= 50.000000  R,EQ.RATIO= 3.405666  PHI,EQ.RATIO= 3.405666

                 CHAMBER   THROAT     EXIT     EXIT     EXIT     EXIT
 Pinf/P            1.0000   1.8233   7.0000   8.0000   9.0000   10.000
 P, BAR           0.82737  0.45377  0.11820  0.10342  0.09193  0.08274
 T, K             1412.68  1233.86   991.73   977.36   965.49   955.43
 RHO, KG/CU M    1.0672-1 6.7201-2 2.2359-2 1.9928-2 1.7993-2 1.6415-2
 H, KJ/KG        -1087.08 -1521.83 -2319.59 -2389.53 -2450.18 -2503.64
 U, KJ/KG        -1862.38 -2197.07 -2848.21 -2908.51 -2961.10 -3007.67
 G, KJ/KG        -21557.1 -19400.6 -16689.9 -16551.6 -16440.3 -16348.0
 S, KJ/(KG)(K)    14.4902  14.4902  14.4902  14.4902  14.4902  14.4902

 M, (1/n)          15.150   15.193   15.598   15.658   15.712   15.761
 MW, MOL WT        14.178   14.194   14.241   14.243   14.245   14.246
 (dLV/dLP)t      -1.00189 -1.00468 -1.02802 -1.03095 -1.03349 -1.03570
 (dLV/dLT)p        1.0190   1.0589   1.4996   1.5635   1.6201   1.6706
 Cp, KJ/(KG)(K)    2.4248   2.6902   7.1031   7.8152   8.4573   9.0383
 GAMMAs            1.3040   1.2877   1.1638   1.1563   1.1504   1.1457
 SON VEL,M/SEC     1005.5    932.5    784.4    774.6    766.7    759.9
 MACH NUMBER        0.000    1.000    2.002    2.083    2.154    2.215

 PERFORMANCE PARAMETERS

 Ae/At                      1.0000   1.7851   1.9483   2.1093   2.2680
 CSTAR, M/SEC               1320.3   1320.3   1320.3   1320.3   1320.3
 CF                         0.7062   1.1891   1.2224   1.2505   1.2748
 Ivac, M/SEC                1656.6   1906.7   1935.5   1960.6   1982.6
 Isp, M/SEC                  932.5   1570.0   1614.0   1651.1   1683.2


 MASS FRACTIONS

 CH4              0.00099  0.00164  0.00351  0.00360  0.00365  0.00369
 *CO              0.87304  0.86725  0.79669  0.78556  0.77543  0.76618
 *CO2             0.00081  0.00346  0.04419  0.05117  0.05760  0.06353
 *H2              0.06998  0.06964  0.06782  0.06764  0.06748  0.06735
 H2O              0.00082  0.00238  0.01441  0.01586  0.01711  0.01820
 C(gr)            0.05436  0.05564  0.07337  0.07618  0.07873  0.08105

  * THERMODYNAMIC PROPERTIES FITTED TO 20000.K

 NOTE. WEIGHT FRACTION OF FUEL IN TOTAL FUELS AND OF OXIDANT IN TOTAL OXIDANTS










              THEORETICAL ROCKET PERFORMANCE ASSUMING EQUILIBRIUM

           COMPOSITION DURING EXPANSION FROM INFINITE AREA COMBUSTOR

 Pin =    13.0 PSIA
 CASE = rocketsample   

             REACTANT                    WT FRACTION      ENERGY      TEMP
                                          (SEE NOTE)     KJ/KG-MOL      K  
 FUEL        RP-1                         1.0000000    -24717.700    298.150
 OXIDANT     O2(L)                        1.0000000    -12979.000     90.170

 O/F=    1.00000  %FUEL= 50.000000  R,EQ.RATIO= 3.405666  PHI,EQ.RATIO= 3.405666

                 CHAMBER   THROAT     EXIT     EXIT     EXIT     EXIT     EXIT     EXIT
 Pinf/P            1.0000   1.8222   1.0000   2.0000   3.0000   4.0000   5.0000   6.0000
 P, BAR           0.89631  0.49189  0.89631  0.44816  0.29877  0.22408  0.17926  0.14939
 T, K             1413.19  1235.18  1413.19  1211.12  1120.06  1069.02  1036.03  1012.50
 RHO, KG/CU M    1.1559-1 7.2793-2 1.1559-1 6.7696-2 4.9073-2 3.8788-2 3.2193-2 2.7584-2
 H, KJ/KG        -1087.08 -1521.57 -1087.08 -1583.84 -1841.11 -2011.66 -2138.19 -2238.30
 U, KJ/KG        -1862.54 -2197.31 -1862.54 -2245.86 -2449.94 -2589.35 -2695.03 -2779.87
 G, KJ/KG        -21502.3 -19365.3 -21502.3 -19080.0 -18021.7 -17455.0 -17105.0 -16865.1
 S, KJ/(KG)(K)    14.4462  14.4462  14.4462  14.4462  14.4462  14.4462  14.4462  14.4462

 M, (1/n)          15.152   15.198   15.152   15.211   15.296   15.386   15.470   15.545
 MW, MOL WT        14.180   14.197   14.180   14.201   14.218   14.230   14.238   14.243
 (dLV/dLP)t      -1.00204 -1.00500 -1.00204 -1.00583 -1.01115 -1.01651 -1.02125 -1.02528
 (dLV/dLT)p        1.0205   1.0628   1.0205   1.0757   1.1648   1.2629   1.3551   1.4373
 Cp, KJ/(KG)(K)    2.4335   2.7179   2.4335   2.8213   3.6131   4.5689   5.5147   6.3879
 GAMMAs            1.3034   1.2859   1.3034   1.2793   1.2391   1.2079   1.1873   1.1733
 SON VEL,M/SEC     1005.3    932.2   1005.3    920.3    868.6    835.4    813.1    797.1
 MACH NUMBER        0.000    1.000    0.000    1.083    1.414    1.628    1.783    1.904

 PERFORMANCE PARAMETERS

 Ae/At                      1.0000 2041315.   1.0056   1.1260   1.2865   1.4538   1.6212
 CSTAR, M/SEC               1320.9   1320.9   1320.9   1320.9   1320.9   1320.9   1320.9
 CF                         0.7057   0.0000   0.7546   0.9297   1.0295   1.0977   1.1487
 Ivac, M/SEC                1657.1*********   1660.9   1723.8   1784.7   1834.0   1874.3
 Isp, M/SEC                  932.2      0.0    996.8   1228.0   1359.8   1449.9   1517.4


 MASS FRACTIONS

 CH4              0.00106  0.00176  0.00106  0.00190  0.00260  0.00307  0.00337  0.00356
 *CO              0.87286  0.86671  0.87286  0.86479  0.85123  0.83584  0.82097  0.80732
 *CO2             0.00087  0.00368  0.00087  0.00463  0.01177  0.02043  0.02915  0.03739
 *H2              0.06995  0.06959  0.06995  0.06950  0.06900  0.06857  0.06823  0.06795
 H2O              0.00089  0.00254  0.00089  0.00300  0.00588  0.00868  0.01111  0.01314
 C(gr)            0.05436  0.05572  0.05436  0.05617  0.05952  0.06340  0.06718  0.07064

  * THERMODYNAMIC PROPERTIES FITTED TO 20000.K

 NOTE. WEIGHT FRACTION OF FUEL IN TOTAL FUELS AND OF OXIDANT IN TOTAL OXIDANTS










              THEORETICAL ROCKET PERFORMANCE ASSUMING EQUILIBRIUM

           COMPOSITION DURING EXPANSION FROM INFINITE AREA COMBUSTOR

 Pin =    13.0 PSIA
 CASE = rocketsample   

             REACTANT                    WT FRACTION      ENERGY      TEMP
                                          (SEE NOTE)     KJ/KG-MOL      K  
 FUEL        RP-1                         1.0000000    -24717.700    298.150
 OXIDANT     O2(L)                        1.0000000    -12979.000     90.170

 O/F=    1.00000  %FUEL= 50.000000  R,EQ.RATIO= 3.405666  PHI,EQ.RATIO= 3.405666

                 CHAMBER   THROAT     EXIT     EXIT     EXIT     EXIT
 Pinf/P            1.0000   1.8222   7.0000   8.0000   9.0000   10.000
 P, BAR           0.89631  0.49189  0.12804  0.11204  0.09959  0.08963
 T, K             1413.19  1235.18   994.54   980.19   968.32   958.26
 RHO, KG/CU M    1.1559-1 7.2793-2 2.4174-2 2.1544-2 1.9452-2 1.7746-2
 H, KJ/KG        -1087.08 -1521.57 -2320.86 -2390.94 -2451.71 -2505.28
 U, KJ/KG        -1862.54 -2197.31 -2850.54 -2910.97 -2963.68 -3010.35
 G, KJ/KG        -21502.3 -19365.3 -16688.3 -16551.0 -16440.3 -16348.5
 S, KJ/(KG)(K)    14.4462  14.4462  14.4462  14.4462  14.4462  14.4462

 M, (1/n)          15.152   15.198   15.612   15.672   15.726   15.775
 MW, MOL WT        14.180   14.197   14.246   14.248   14.249   14.250
 (dLV/dLP)t      -1.00204 -1.00500 -1.02871 -1.03165 -1.03418 -1.03639
 (dLV/dLT)p        1.0205   1.0628   1.5096   1.5734   1.6299   1.6802
 Cp, KJ/(KG)(K)    2.4335   2.7179   7.1764   7.8851   8.5232   9.1003
 GAMMAs            1.3034   1.2859   1.1633   1.1560   1.1502   1.1456
 SON VEL,M/SEC     1005.3    932.2    785.0    775.3    767.4    760.7
 MACH NUMBER        0.000    1.000    2.001    2.083    2.153    2.214

 PERFORMANCE PARAMETERS

 Ae/At                      1.0000   1.7869   1.9504   2.1115   2.2704
 CSTAR, M/SEC               1320.9   1320.9   1320.9   1320.9   1320.9
 CF                         0.7057   1.1892   1.2225   1.2507   1.2750
 Ivac, M/SEC                1657.1   1908.0   1936.9   1961.9   1984.1
 Isp, M/SEC                  932.2   1570.8   1614.8   1652.0   1684.2


 MASS FRACTIONS

 CH4              0.00106  0.00176  0.00368  0.00377  0.00382  0.00386
 *CO              0.87286  0.86671  0.79497  0.78380  0.77365  0.76438
 *CO2             0.00087  0.00368  0.04499  0.05198  0.05841  0.06434
 *H2              0.06995  0.06959  0.06773  0.06754  0.06739  0.06725
 H2O              0.00089  0.00254  0.01486  0.01632  0.01759  0.01869
 C(gr)            0.05436  0.05572  0.07376  0.07658  0.07914  0.08147

  * THERMODYNAMIC PROPERTIES FITTED TO 20000.K

 NOTE. WEIGHT FRACTION OF FUEL IN TOTAL FUELS AND OF OXIDANT IN TOTAL OXIDANTS










              THEORETICAL ROCKET PERFORMANCE ASSUMING EQUILIBRIUM

           COMPOSITION DURING EXPANSION FROM INFINITE AREA COMBUSTOR

 Pin =    14.0 PSIA
 CASE = rocketsample   

             REACTANT                    WT FRACTION      ENERGY      TEMP
                                          (SEE NOTE)     KJ/KG-MOL      K  
 FUEL        RP-1                         1.0000000    -24717.700    298.150
 OXIDANT     O2(L)                        1.0000000    -12979.000     90.170

 O/F=    1.00000  %FUEL= 50.000000  R,EQ.RATIO= 3.405666  PHI,EQ.RATIO= 3.405666

                 CHAMBER   THROAT     EXIT     EXIT     EXIT     EXIT     EXIT     EXIT
 Pinf/P            1.0000   1.8211   1.0000   2.0000   3.0000   4.0000   5.0000   6.0000
 P, BAR           0.96526  0.53004  0.96526  0.48263  0.32175  0.24132  0.19305  0.16088
 T, K             1413.68  1236.47  1413.68  1212.40  1122.02  1071.36  1038.55  1015.10
 RHO, KG/CU M    1.2445-1 7.8382-2 1.2445-1 7.2853-2 5.2784-2 4.1708-2 3.4610-2 2.9652-2
 H, KJ/KG        -1087.08 -1521.33 -1087.08 -1584.04 -1841.55 -2012.33 -2139.07 -2239.35
 U, KJ/KG        -1862.70 -2197.55 -1862.70 -2246.51 -2451.11 -2590.91 -2696.86 -2781.90
 G, KJ/KG        -21452.0 -19333.3 -21452.0 -19049.4 -18005.0 -17445.9 -17100.0 -16862.5
 S, KJ/(KG)(K)    14.4056  14.4056  14.4056  14.4056  14.4056  14.4056  14.4056  14.4056

 M, (1/n)          15.155   15.203   15.155   15.217   15.305   15.396   15.481   15.556
 MW, MOL WT        14.182   14.200   14.182   14.204   14.222   14.234   14.242   14.247
 (dLV/dLP)t      -1.00219 -1.00531 -1.00219 -1.00618 -1.01167 -1.01711 -1.02188 -1.02593
 (dLV/dLT)p        1.0219   1.0666   1.0219   1.0801   1.1719   1.2715   1.3642   1.4466
 Cp, KJ/(KG)(K)    2.4421   2.7446   2.4421   2.8536   3.6687   4.6362   5.5853   6.4578
 GAMMAs            1.3028   1.2843   1.3028   1.2775   1.2372   1.2066   1.1863   1.1727
 SON VEL,M/SEC     1005.2    931.9   1005.2    919.9    868.4    835.5    813.5    797.6
 MACH NUMBER        0.000    1.000    0.000    1.084    1.415    1.628    1.783    1.903

 PERFORMANCE PARAMETERS

 Ae/At                      1.0000 988484.0   1.0057   1.1266   1.2874   1.4550   1.6227
 CSTAR, M/SEC               1321.4   1321.4   1321.4   1321.4   1321.4   1321.4   1321.4
 CF                         0.7052   0.0000   0.7544   0.9296   1.0294   1.0977   1.1488
 Ivac, M/SEC                1657.5*********   1661.4   1724.6   1785.6   1835.1   1875.5
 Isp, M/SEC                  931.9      0.0    996.9   1228.4   1360.3   1450.5   1518.1


 MASS FRACTIONS

 CH4              0.00114  0.00187  0.00114  0.00203  0.00275  0.00323  0.00353  0.00372
 *CO              0.87268  0.86620  0.87268  0.86418  0.85017  0.83452  0.81950  0.80577
 *CO2             0.00093  0.00390  0.00093  0.00489  0.01225  0.02105  0.02984  0.03811
 *H2              0.06992  0.06954  0.06992  0.06945  0.06893  0.06849  0.06814  0.06786
 H2O              0.00095  0.00269  0.00095  0.00318  0.00616  0.00903  0.01149  0.01355
 C(gr)            0.05437  0.05579  0.05437  0.05627  0.05973  0.06368  0.06749  0.07098

  * THERMODYNAMIC PROPERTIES FITTED TO 20000.K

 NOTE. WEIGHT FRACTION OF FUEL IN TOTAL FUELS AND OF OXIDANT IN TOTAL OXIDANTS










              THEORETICAL ROCKET PERFORMANCE ASSUMING EQUILIBRIUM

           COMPOSITION DURING EXPANSION FROM INFINITE AREA COMBUSTOR

 Pin =    14.0 PSIA
 CASE = rocketsample   

             REACTANT                    WT FRACTION      ENERGY      TEMP
                                          (SEE NOTE)     KJ/KG-MOL      K  
 FUEL        RP-1                         1.0000000    -24717.700    298.150
 OXIDANT     O2(L)                        1.0000000    -12979.000     90.170

 O/F=    1.00000  %FUEL= 50.000000  R,EQ.RATIO= 3.405666  PHI,EQ.RATIO= 3.405666

                 CHAMBER   THROAT     EXIT     EXIT     EXIT     EXIT
 Pinf/P            1.0000   1.8211   7.0000   8.0000   9.0000   10.000
 P, BAR           0.96526  0.53004  0.13789  0.12066  0.10725  0.09653
 T, K             1413.68  1236.47   997.18   982.84   970.97   960.90
 RHO, KG/CU M    1.2445-1 7.8382-2 2.5985-2 2.3158-2 2.0909-2 1.9075-2
 H, KJ/KG        -1087.08 -1521.33 -2322.06 -2392.27 -2453.16 -2506.84
 U, KJ/KG        -1862.70 -2197.55 -2852.73 -2913.29 -2966.11 -3012.87
 G, KJ/KG        -21452.0 -19333.3 -16687.0 -16550.6 -16440.5 -16349.1
 S, KJ/(KG)(K)    14.4056  14.4056  14.4056  14.4056  14.4056  14.4056

 M, (1/n)          15.155   15.203   15.624   15.684   15.739   15.788
 MW, MOL WT        14.182   14.200   14.250   14.252   14.253   14.254
 (dLV/dLP)t      -1.00219 -1.00531 -1.02937 -1.03230 -1.03483 -1.03703
 (dLV/dLT)p        1.0219   1.0666   1.5189   1.5826   1.6389   1.6892
 Cp, KJ/(KG)(K)    2.4421   2.7446   7.2438   7.9490   8.5836   9.1570
 GAMMAs            1.3028   1.2843   1.1630   1.1557   1.1501   1.1456
 SON VEL,M/SEC     1005.2    931.9    785.6    776.0    768.1    761.4
 MACH NUMBER        0.000    1.000    2.001    2.082    2.152    2.213

 PERFORMANCE PARAMETERS

 Ae/At                      1.0000   1.7886   1.9523   2.1136   2.2725
 CSTAR, M/SEC               1321.4   1321.4   1321.4   1321.4   1321.4
 CF                         0.7052   1.1893   1.2226   1.2508   1.2752
 Ivac, M/SEC                1657.5   1909.3   1938.1   1963.2   1985.4
 Isp, M/SEC                  931.9   1571.6   1615.7   1652.9   1685.1


 MASS FRACTIONS

 CH4              0.00114  0.00187  0.00385  0.00393  0.00399  0.00402
 *CO              0.87268  0.86620  0.79337  0.78216  0.77199  0.76271
 *CO2             0.00093  0.00390  0.04573  0.05273  0.05916  0.06509
 *H2              0.06992  0.06954  0.06764  0.06745  0.06729  0.06716
 H2O              0.00095  0.00269  0.01528  0.01676  0.01804  0.01916
 C(gr)            0.05437  0.05579  0.07412  0.07696  0.07952  0.08186

  * THERMODYNAMIC PROPERTIES FITTED TO 20000.K

 NOTE. WEIGHT FRACTION OF FUEL IN TOTAL FUELS AND OF OXIDANT IN TOTAL OXIDANTS










              THEORETICAL ROCKET PERFORMANCE ASSUMING EQUILIBRIUM

           COMPOSITION DURING EXPANSION FROM INFINITE AREA COMBUSTOR

 Pin =     2.0 PSIA
 CASE = rocketsample   

             REACTANT                    WT FRACTION      ENERGY      TEMP
                                          (SEE NOTE)     KJ/KG-MOL      K  
 FUEL        RP-1                         1.0000000    -24717.700    298.150
 OXIDANT     O2(L)                        1.0000000    -12979.000     90.170

 O/F=    2.00000  %FUEL= 33.333333  R,EQ.RATIO= 1.702833  PHI,EQ.RATIO= 1.702833

                 CHAMBER   THROAT     EXIT     EXIT     EXIT     EXIT     EXIT     EXIT
 Pinf/P            1.0000   1.7226   1.0000   2.0000   3.0000   4.0000   5.0000   6.0000
 P, BAR           0.13789  0.08005  0.13789  0.06895  0.04596  0.03447  0.02758  0.02298
[...]
 HO2              0.00005  0.00003  0.00001  0.00001  0.00000  0.00000
 *H2              0.00015  0.00011  0.00002  0.00002  0.00002  0.00001
 H2O              0.10130  0.10460  0.11118  0.11161  0.11197  0.11225
 *O               0.00988  0.00656  0.00129  0.00103  0.00083  0.00068
 *OH              0.02070  0.01573  0.00534  0.00461  0.00402  0.00353
 *O2              0.58998  0.59210  0.59682  0.59717  0.59747  0.59771

  * THERMODYNAMIC PROPERTIES FITTED TO 20000.K

 NOTE. WEIGHT FRACTION OF FUEL IN TOTAL FUELS AND OF OXIDANT IN TOTAL OXIDANTS










              THEORETICAL ROCKET PERFORMANCE ASSUMING EQUILIBRIUM

           COMPOSITION DURING EXPANSION FROM INFINITE AREA COMBUSTOR

 Pin =    12.0 PSIA
 CASE = rocketsample   

             REACTANT                    WT FRACTION      ENERGY      TEMP
                                          (SEE NOTE)     KJ/KG-MOL      K  
 FUEL        RP-1                         1.0000000    -24717.700    298.150
 OXIDANT     O2(L)                        1.0000000    -12979.000     90.170

 O/F=   10.00000  %FUEL=  9.090909  R,EQ.RATIO= 0.340567  PHI,EQ.RATIO= 0.340567

                 CHAMBER   THROAT     EXIT     EXIT     EXIT     EXIT     EXIT     EXIT
 Pinf/P            1.0000   1.7342   1.0000   2.0000   3.0000   4.0000   5.0000   6.0000
 P, BAR           0.82737  0.47709  0.82737  0.41368  0.27579  0.20684  0.16547  0.13789
 T, K             2592.67  2451.20  2592.67  2413.99  2306.05  2227.03  2164.07  2111.49
 RHO, KG/CU M    1.1799-1 7.2628-2 1.1799-1 6.4083-2 4.4966-2 3.5035-2 2.8905-2 2.4725-2
 H, KJ/KG         -529.51  -903.32  -529.51  -996.19 -1251.40 -1424.55 -1554.29 -1657.32
 U, KJ/KG        -1230.75 -1560.22 -1230.75 -1641.73 -1864.73 -2014.94 -2126.77 -2215.05
 G, KJ/KG        -25504.5 -24515.6 -25504.5 -24250.0 -23465.4 -22877.4 -22400.6 -21997.2
 S, KJ/(KG)(K)     9.6329   9.6329   9.6329   9.6329   9.6329   9.6329   9.6329   9.6329

 M, (1/n)          30.741   31.026   30.741   31.092   31.262   31.363   31.431   31.478
 MW, MOL WT        30.741   31.026   30.741   31.092   31.262   31.363   31.431   31.478
 (dLV/dLP)t      -1.01223 -1.00835 -1.01223 -1.00744 -1.00513 -1.00377 -1.00287 -1.00225
 (dLV/dLT)p        1.3077   1.2236   1.3077   1.2029   1.1476   1.1128   1.0890   1.0719
 Cp, KJ/(KG)(K)    3.5955   3.0930   3.5955   2.9623   2.5990   2.3568   2.1832   2.0531
 GAMMAs            1.1317   1.1381   1.1317   1.1405   1.1489   1.1568   1.1639   1.1704
 SON VEL,M/SEC      890.9    864.7    890.9    858.0    839.5    826.4    816.3    807.9
 MACH NUMBER        0.000    1.000      NaN    1.126    1.431    1.619    1.754    1.859

 PERFORMANCE PARAMETERS

 Ae/At                      1.0000      NaN   1.0143   1.1623   1.3397   1.5175   1.6912
 CSTAR, M/SEC               1317.5   1317.5   1317.5   1317.5   1317.5   1317.5   1317.5
 CF                         0.6563      NaN   0.7333   0.9120   1.0155   1.0866   1.1399
 Ivac, M/SEC                1624.4      NaN   1634.3   1712.0   1779.2   1831.5   1873.2
 Isp, M/SEC                  864.7      NaN    966.1   1201.6   1337.9   1431.6   1501.9


 MASS FRACTIONS

 *CO              0.01446  0.00933  0.01446  0.00818  0.00533  0.00371  0.00270  0.00202
 *CO2             0.26355  0.27160  0.26355  0.27341  0.27789  0.28043  0.28203  0.28309
 *H               0.00006  0.00004  0.00006  0.00003  0.00002  0.00001  0.00001  0.00001
 HO2              0.00005  0.00003  0.00005  0.00003  0.00002  0.00001  0.00001  0.00001
 *H2              0.00015  0.00010  0.00015  0.00009  0.00006  0.00005  0.00004  0.00003
 H2O              0.10141  0.10471  0.10141  0.10551  0.10765  0.10902  0.10998  0.11069
 *O               0.00969  0.00641  0.00969  0.00567  0.00382  0.00274  0.00205  0.00158
 *OH              0.02057  0.01560  0.02057  0.01437  0.01104  0.00887  0.00732  0.00615
 *O2              0.59005  0.59218  0.59005  0.59271  0.59417  0.59516  0.59588  0.59643

  * THERMODYNAMIC PROPERTIES FITTED TO 20000.K

 NOTE. WEIGHT FRACTION OF FUEL IN TOTAL FUELS AND OF OXIDANT IN TOTAL OXIDANTS










              THEORETICAL ROCKET PERFORMANCE ASSUMING EQUILIBRIUM

           COMPOSITION DURING EXPANSION FROM INFINITE AREA COMBUSTOR

 Pin =    12.0 PSIA
 CASE = rocketsample   

             REACTANT                    WT FRACTION      ENERGY      TEMP
                                          (SEE NOTE)     KJ/KG-MOL      K  
 FUEL        RP-1                         1.0000000    -24717.700    298.150
 OXIDANT     O2(L)                        1.0000000    -12979.000     90.170

 O/F=   10.00000  %FUEL=  9.090909  R,EQ.RATIO= 0.340567  PHI,EQ.RATIO= 0.340567

                 CHAMBER   THROAT     EXIT     EXIT     EXIT     EXIT
 Pinf/P            1.0000   1.7342   7.0000   8.0000   9.0000   10.000
 P, BAR           0.82737  0.47709  0.11820  0.10342  0.09193  0.08274
 T, K             2592.67  2451.20  2066.25  2026.52  1991.09  1959.13
 RHO, KG/CU M    1.1799-1 7.2628-2 2.1680-2 1.9358-2 1.7525-2 1.6038-2
 H, KJ/KG         -529.51  -903.32 -1742.33 -1814.40 -1876.76 -1931.57
 U, KJ/KG        -1230.75 -1560.22 -2287.50 -2348.64 -2401.32 -2447.45
 G, KJ/KG        -25504.5 -24515.6 -21646.4 -21335.7 -21056.8 -20803.8
 S, KJ/(KG)(K)     9.6329   9.6329   9.6329   9.6329   9.6329   9.6329

 M, (1/n)          30.741   31.026   31.513   31.539   31.559   31.575
 MW, MOL WT        30.741   31.026   31.513   31.539   31.559   31.575
 (dLV/dLP)t      -1.01223 -1.00835 -1.00180 -1.00147 -1.00121 -1.00102
 (dLV/dLT)p        1.3077   1.2236   1.0591   1.0493   1.0416   1.0355
 Cp, KJ/(KG)(K)    3.5955   3.0930   1.9523   1.8726   1.8082   1.7555
 GAMMAs            1.1317   1.1381   1.1762   1.1814   1.1861   1.1902
 SON VEL,M/SEC      890.9    864.7    800.8    794.4    788.8    783.6
 MACH NUMBER        0.000    1.000    1.945    2.018    2.081    2.137

 PERFORMANCE PARAMETERS

 Ae/At                      1.0000   1.8598   2.0236   2.1830   2.3383
 CSTAR, M/SEC               1317.5   1317.5   1317.5   1317.5   1317.5
 CF                         0.6563   1.1821   1.2167   1.2459   1.2710
 Ivac, M/SEC                1624.4   1907.5   1936.3   1961.1   1982.6
 Isp, M/SEC                  864.7   1557.4   1603.1   1641.5   1674.5


 MASS FRACTIONS

 *CO              0.01446  0.00933  0.00155  0.00120  0.00095  0.00076
 *CO2             0.26355  0.27160  0.28384  0.28437  0.28476  0.28506
 *H               0.00006  0.00004  0.00000  0.00000  0.00000  0.00000
 HO2              0.00005  0.00003  0.00001  0.00001  0.00000  0.00000
 *H2              0.00015  0.00010  0.00002  0.00002  0.00001  0.00001
 H2O              0.10141  0.10471  0.11124  0.11167  0.11201  0.11230
 *O               0.00969  0.00641  0.00124  0.00099  0.00080  0.00066
 *OH              0.02057  0.01560  0.00524  0.00452  0.00394  0.00345
 *O2              0.59005  0.59218  0.59687  0.59722  0.59751  0.59775

  * THERMODYNAMIC PROPERTIES FITTED TO 20000.K

 NOTE. WEIGHT FRACTION OF FUEL IN TOTAL FUELS AND OF OXIDANT IN TOTAL OXIDANTS










              THEORETICAL ROCKET PERFORMANCE ASSUMING EQUILIBRIUM

           COMPOSITION DURING EXPANSION FROM INFINITE AREA COMBUSTOR

 Pin =    13.0 PSIA
 CASE = rocketsample   

             REACTANT                    WT FRACTION      ENERGY      TEMP
                                          (SEE NOTE)     KJ/KG-MOL      K  
 FUEL        RP-1                         1.0000000    -24717.700    298.150
 OXIDANT     O2(L)                        1.0000000    -12979.000     90.170

 O/F=   10.00000  %FUEL=  9.090909  R,EQ.RATIO= 0.340567  PHI,EQ.RATIO= 0.340567

                 CHAMBER   THROAT     EXIT     EXIT     EXIT     EXIT     EXIT     EXIT
 Pinf/P            1.0000   1.7347   1.0000   2.0000   3.0000   4.0000   5.0000   6.0000
 P, BAR           0.89631  0.51671  0.89631  0.44816  0.29877  0.22408  0.17926  0.14939
 T, K             2597.46  2454.76  2597.46  2417.31  2308.50  2228.87  2165.45  2112.52
 RHO, KG/CU M    1.2764-1 7.8572-2 1.2764-1 6.9350-2 4.8674-2 3.7931-2 3.1299-2 2.6776-2
 H, KJ/KG         -529.51  -903.98  -529.51  -996.77 -1252.23 -1425.50 -1555.32 -1658.39
 U, KJ/KG        -1231.76 -1561.61 -1231.76 -1643.00 -1866.06 -2016.26 -2128.06 -2216.30
 G, KJ/KG        -25494.4 -24497.4 -25494.4 -24230.2 -23439.9 -22847.8 -22368.1 -21962.4
 S, KJ/(KG)(K)     9.6113   9.6113   9.6113   9.6113   9.6113   9.6113   9.6113   9.6113

 M, (1/n)          30.754   31.036   30.754   31.102   31.269   31.370   31.436   31.483
 MW, MOL WT        30.754   31.036   30.754   31.102   31.269   31.370   31.436   31.483
 (dLV/dLP)t      -1.01205 -1.00819 -1.01205 -1.00730 -1.00502 -1.00368 -1.00280 -1.00219
 (dLV/dLT)p        1.3026   1.2193   1.3026   1.1988   1.1443   1.1101   1.0867   1.0699
 Cp, KJ/(KG)(K)    3.5575   3.0604   3.5575   2.9315   2.5732   2.3350   2.1645   2.0369
 GAMMAs            1.1324   1.1389   1.1324   1.1412   1.1498   1.1577   1.1648   1.1713
 SON VEL,M/SEC      891.7    865.4    891.7    858.8    840.1    827.0    816.8    808.4
 MACH NUMBER        0.000    1.000      NaN    1.126    1.431    1.619    1.754    1.859

 PERFORMANCE PARAMETERS

 Ae/At                      1.0000      NaN   1.0143   1.1620   1.3392   1.5167   1.6901
 CSTAR, M/SEC               1318.2   1318.2   1318.2   1318.2   1318.2   1318.2   1318.2
 CF                         0.6565      NaN   0.7334   0.9121   1.0155   1.0866   1.1399
 Ivac, M/SEC                1625.3      NaN   1635.2   1712.8   1780.0   1832.2   1873.9
 Isp, M/SEC                  865.4      NaN    966.7   1202.3   1338.6   1432.3   1502.6


 MASS FRACTIONS

 *CO              0.01424  0.00915  0.01424  0.00801  0.00520  0.00361  0.00262  0.00195
 *CO2             0.26390  0.27188  0.26390  0.27367  0.27809  0.28059  0.28215  0.28319
 *H               0.00006  0.00004  0.00006  0.00003  0.00002  0.00001  0.00001  0.00001
 HO2              0.00005  0.00003  0.00005  0.00003  0.00002  0.00001  0.00001  0.00001
 *H2              0.00015  0.00010  0.00015  0.00009  0.00006  0.00005  0.00003  0.00003
 H2O              0.10151  0.10481  0.10151  0.10560  0.10773  0.10909  0.11004  0.11075
 *O               0.00952  0.00627  0.00952  0.00554  0.00372  0.00267  0.00199  0.00153
 *OH              0.02045  0.01547  0.02045  0.01424  0.01092  0.00876  0.00722  0.00606
 *O2              0.59012  0.59224  0.59012  0.59277  0.59423  0.59521  0.59593  0.59648

  * THERMODYNAMIC PROPERTIES FITTED TO 20000.K

 NOTE. WEIGHT FRACTION OF FUEL IN TOTAL FUELS AND OF OXIDANT IN TOTAL OXIDANTS










              THEORETICAL ROCKET PERFORMANCE ASSUMING EQUILIBRIUM

           COMPOSITION DURING EXPANSION FROM INFINITE AREA COMBUSTOR

 Pin =    13.0 PSIA
 CASE = rocketsample   

             REACTANT                    WT FRACTION      ENERGY      TEMP
                                          (SEE NOTE)     KJ/KG-MOL      K  
 FUEL        RP-1                         1.0000000    -24717.700    298.150
 OXIDANT     O2(L)                        1.0000000    -12979.000     90.170

 O/F=   10.00000  %FUEL=  9.090909  R,EQ.RATIO= 0.340567  PHI,EQ.RATIO= 0.340567

                 CHAMBER   THROAT     EXIT     EXIT     EXIT     EXIT
 Pinf/P            1.0000   1.7347   7.0000   8.0000   9.0000   10.000
 P, BAR           0.89631  0.51671  0.12804  0.11204  0.09959  0.08963
 T, K             2597.46  2454.76  2067.00  2027.04  1991.43  1959.32
 RHO, KG/CU M    1.2764-1 7.8572-2 2.3481-2 2.0968-2 1.8984-2 1.7374-2
 H, KJ/KG         -529.51  -903.98 -1743.42 -1815.50 -1877.87 -1932.68
 U, KJ/KG        -1231.76 -1561.61 -2288.72 -2349.83 -2402.48 -2448.58
 G, KJ/KG        -25494.4 -24497.4 -21609.9 -21297.9 -21018.0 -20764.3
 S, KJ/(KG)(K)     9.6113   9.6113   9.6113   9.6113   9.6113   9.6113

 M, (1/n)          30.754   31.036   31.517   31.542   31.562   31.578
 MW, MOL WT        30.754   31.036   31.517   31.542   31.562   31.578
 (dLV/dLP)t      -1.01205 -1.00819 -1.00175 -1.00143 -1.00118 -1.00098
 (dLV/dLT)p        1.3026   1.2193   1.0574   1.0479   1.0404   1.0345
 Cp, KJ/(KG)(K)    3.5575   3.0604   1.9383   1.8603   1.7974   1.7459
 GAMMAs            1.1324   1.1389   1.1771   1.1823   1.1869   1.1911
 SON VEL,M/SEC      891.7    865.4    801.2    794.8    789.1    783.9
 MACH NUMBER        0.000    1.000    1.945    2.018    2.081    2.137

 PERFORMANCE PARAMETERS

 Ae/At                      1.0000   1.8585   2.0221   2.1812   2.3363
 CSTAR, M/SEC               1318.2   1318.2   1318.2   1318.2   1318.2
 CF                         0.6565   1.1821   1.2166   1.2458   1.2709
 Ivac, M/SEC                1625.3   1908.1   1936.9   1961.6   1983.2
 Isp, M/SEC                  865.4   1558.1   1603.7   1642.2   1675.2


 MASS FRACTIONS

 *CO              0.01424  0.00915  0.00149  0.00116  0.00092  0.00074
 *CO2             0.26390  0.27188  0.28392  0.28444  0.28482  0.28511
 *H               0.00006  0.00004  0.00000  0.00000  0.00000  0.00000
 HO2              0.00005  0.00003  0.00001  0.00001  0.00001  0.00000
 *H2              0.00015  0.00010  0.00002  0.00002  0.00001  0.00001
 H2O              0.10151  0.10481  0.11129  0.11172  0.11206  0.11234
 *O               0.00952  0.00627  0.00120  0.00095  0.00077  0.00063
 *OH              0.02045  0.01547  0.00516  0.00445  0.00387  0.00339
 *O2              0.59012  0.59224  0.59691  0.59726  0.59754  0.59778

  * THERMODYNAMIC PROPERTIES FITTED TO 20000.K

 NOTE. WEIGHT FRACTION OF FUEL IN TOTAL FUELS AND OF OXIDANT IN TOTAL OXIDANTS










              THEORETICAL ROCKET PERFORMANCE ASSUMING EQUILIBRIUM

           COMPOSITION DURING EXPANSION FROM INFINITE AREA COMBUSTOR

 Pin =    14.0 PSIA
 CASE = rocketsample   

             REACTANT                    WT FRACTION      ENERGY      TEMP
                                          (SEE NOTE)     KJ/KG-MOL      K  
 FUEL        RP-1                         1.0000000    -24717.700    298.150
 OXIDANT     O2(L)                        1.0000000    -12979.000     90.170

 O/F=   10.00000  %FUEL=  9.090909  R,EQ.RATIO= 0.340567  PHI,EQ.RATIO= 0.340567

                 CHAMBER   THROAT     EXIT     EXIT     EXIT     EXIT     EXIT     EXIT
 Pinf/P            1.0000   1.7351   1.0000   2.0000   3.0000   4.0000   5.0000   6.0000
 P, BAR           0.96526  0.55632  0.96526  0.48263  0.32175  0.24132  0.19305  0.16088
 T, K             2601.87  2458.03  2601.87  2420.36  2310.74  2230.54  2166.71  2113.45
 RHO, KG/CU M    1.3727-1 8.4509-2 1.3727-1 7.4612-2 5.2379-2 4.0825-2 3.3692-2 2.8826-2
 H, KJ/KG         -529.51  -904.59  -529.51  -997.31 -1252.99 -1426.37 -1556.25 -1659.36
 U, KJ/KG        -1232.69 -1562.89 -1232.69 -1644.17 -1867.27 -2017.47 -2129.24 -2217.45
 G, KJ/KG        -25484.8 -24480.2 -25484.8 -24211.6 -23415.9 -22820.1 -22337.7 -21930.0
 S, KJ/(KG)(K)     9.5913   9.5913   9.5913   9.5913   9.5913   9.5913   9.5913   9.5913

 M, (1/n)          30.765   31.046   30.765   31.111   31.277   31.376   31.441   31.487
 MW, MOL WT        30.765   31.046   30.765   31.111   31.277   31.376   31.441   31.487
 (dLV/dLP)t      -1.01187 -1.00805 -1.01187 -1.00717 -1.00492 -1.00359 -1.00273 -1.00214
 (dLV/dLT)p        1.2980   1.2154   1.2980   1.1952   1.1413   1.1076   1.0847   1.0682
 Cp, KJ/(KG)(K)    3.5228   3.0306   3.5228   2.9034   2.5498   2.3151   2.1475   2.0223
 GAMMAs            1.1330   1.1396   1.1330   1.1420   1.1506   1.1585   1.1657   1.1721
 SON VEL,M/SEC      892.6    866.1    892.6    859.5    840.7    827.5    817.3    808.8
 MACH NUMBER        0.000    1.000      NaN    1.125    1.431    1.618    1.753    1.859

 PERFORMANCE PARAMETERS

 Ae/At                      1.0000      NaN   1.0142   1.1617   1.3387   1.5160   1.6891
 CSTAR, M/SEC               1318.8   1318.8   1318.8   1318.8   1318.8   1318.8   1318.8
 CF                         0.6568      NaN   0.7335   0.9121   1.0156   1.0866   1.1399
 Ivac, M/SEC                1626.2      NaN   1636.0   1713.6   1780.6   1832.8   1874.5
 Isp, M/SEC                  866.1      NaN    967.3   1202.9   1339.3   1433.0   1503.2


 MASS FRACTIONS

 *CO              0.01403  0.00899  0.01403  0.00786  0.00508  0.00352  0.00255  0.00190
 *CO2             0.26422  0.27214  0.26422  0.27391  0.27828  0.28073  0.28226  0.28328
 *H               0.00006  0.00004  0.00006  0.00003  0.00002  0.00001  0.00001  0.00001
 HO2              0.00006  0.00003  0.00006  0.00003  0.00002  0.00001  0.00001  0.00001
 *H2              0.00015  0.00010  0.00015  0.00009  0.00006  0.00004  0.00003  0.00003
 H2O              0.10161  0.10490  0.10161  0.10569  0.10781  0.10916  0.11011  0.11080
 *O               0.00936  0.00615  0.00936  0.00543  0.00363  0.00260  0.00193  0.00148
 *OH              0.02034  0.01535  0.02034  0.01413  0.01081  0.00866  0.00712  0.00597
 *O2              0.59019  0.59230  0.59019  0.59283  0.59429  0.59527  0.59598  0.59652

  * THERMODYNAMIC PROPERTIES FITTED TO 20000.K

 NOTE. WEIGHT FRACTION OF FUEL IN TOTAL FUELS AND OF OXIDANT IN TOTAL OXIDANTS










              THEORETICAL ROCKET PERFORMANCE ASSUMING EQUILIBRIUM

           COMPOSITION DURING EXPANSION FROM INFINITE AREA COMBUSTOR

 Pin =    14.0 PSIA
 CASE = rocketsample   

             REACTANT                    WT FRACTION      ENERGY      TEMP
                                          (SEE NOTE)     KJ/KG-MOL      K  
 FUEL        RP-1                         1.0000000    -24717.700    298.150
 OXIDANT     O2(L)                        1.0000000    -12979.000     90.170

 O/F=   10.00000  %FUEL=  9.090909  R,EQ.RATIO= 0.340567  PHI,EQ.RATIO= 0.340567

                 CHAMBER   THROAT     EXIT     EXIT     EXIT     EXIT
 Pinf/P            1.0000   1.7351   7.0000   8.0000   9.0000   10.000
 P, BAR           0.96526  0.55632  0.13789  0.12066  0.10725  0.09653
 T, K             2601.87  2458.03  2067.67  2027.50  1991.72  1959.48
 RHO, KG/CU M    1.3727-1 8.4509-2 2.5282-2 2.2578-2 2.0443-2 1.8710-2
 H, KJ/KG         -529.51  -904.59 -1744.42 -1816.51 -1878.88 -1933.70
 U, KJ/KG        -1232.69 -1562.89 -2289.84 -2350.91 -2403.53 -2449.60
 G, KJ/KG        -25484.8 -24480.2 -21576.0 -21262.8 -20982.0 -20727.6
 S, KJ/(KG)(K)     9.5913   9.5913   9.5913   9.5913   9.5913   9.5913

 M, (1/n)          30.765   31.046   31.520   31.545   31.565   31.580
 MW, MOL WT        30.765   31.046   31.520   31.545   31.565   31.580
 (dLV/dLP)t      -1.01187 -1.00805 -1.00171 -1.00139 -1.00114 -1.00096
 (dLV/dLT)p        1.2980   1.2154   1.0560   1.0466   1.0393   1.0335
 Cp, KJ/(KG)(K)    3.5228   3.0306   1.9256   1.8492   1.7877   1.7374
 GAMMAs            1.1330   1.1396   1.1779   1.1831   1.1877   1.1918
 SON VEL,M/SEC      892.6    866.1    801.5    795.1    789.4    784.1
 MACH NUMBER        0.000    1.000    1.945    2.018    2.081    2.137

 PERFORMANCE PARAMETERS

 Ae/At                      1.0000   1.8573   2.0206   2.1795   2.3344
 CSTAR, M/SEC               1318.8   1318.8   1318.8   1318.8   1318.8
 CF                         0.6568   1.1820   1.2166   1.2457   1.2707
 Ivac, M/SEC                1626.2   1908.7   1937.5   1962.1   1983.7
 Isp, M/SEC                  866.1   1558.8   1604.4   1642.8   1675.8


 MASS FRACTIONS

 *CO              0.01403  0.00899  0.00145  0.00112  0.00089  0.00071
 *CO2             0.26422  0.27214  0.28399  0.28450  0.28487  0.28515
 *H               0.00006  0.00004  0.00000  0.00000  0.00000  0.00000
 HO2              0.00006  0.00003  0.00001  0.00001  0.00001  0.00000
 *H2              0.00015  0.00010  0.00002  0.00002  0.00001  0.00001
 H2O              0.10161  0.10490  0.11134  0.11176  0.11210  0.11237
 *O               0.00936  0.00615  0.00116  0.00092  0.00075  0.00061
 *OH              0.02034  0.01535  0.00508  0.00437  0.00380  0.00333
 *O2              0.59019  0.59230  0.59695  0.59730  0.59758  0.59781

  * THERMODYNAMIC PROPERTIES FITTED TO 20000.K

 NOTE. WEIGHT FRACTION OF FUEL IN TOTAL FUELS AND OF OXIDANT IN TOTAL OXIDANTS



